geometry optimzed in LAMMPS
_audit_creation_date              2020-12-01 
_audit_creation_method            'lammps2cif' 
_symmetry_space_group_name_H-M    'P1' 
_symmetry_Int_Tables_number       1 
_symmetry_cell_setting            triclinic 
loop_ 
_symmetry_equiv_pos_as_xyz 
  x,y,z 
_cell_length_a                    75.94641801 
_cell_length_b                    75.73474985658176 
_cell_length_c                    30.242867559511694 
_cell_angle_alpha                 90.1592059562071 
_cell_angle_beta                  89.85675691399136 
_cell_angle_gamma                 89.90118342034759 
loop_ 
_atom_site_label 
_atom_site_type_symbol 
_atom_site_fract_x 
_atom_site_fract_y 
_atom_site_fract_z 
_atom_site_charge 
Fe1        Fe  0.84516917  0.25155133  0.48137006     1.65800
Fe2        Fe  0.88270778  0.23247947  0.51828290     1.73200
Fe3        Fe  0.85390617  0.20844483  0.45673894     1.54400
O4          O  0.82732755  0.21104046  0.47189911    -0.81000
O5          O  0.89719410  0.22257277  0.46644010    -0.79300
O6          O  0.82380367  0.23751332  0.50283954    -0.83500
O7          O  0.83926141  0.24689383  0.41593011    -0.78300
O8          O  0.85677145  0.19419367  0.51374648    -0.80100
O9          O  0.88869496  0.25757957  0.49575547    -0.82900
C10         C  0.84380029  0.23543807  0.38740453     0.97900
C11         C  0.81812151  0.22231971  0.49285072     1.05300
O12         O  0.86060487  0.23083112  0.48547594    -1.11800
O13         O  0.87042236  0.24245689  0.57317735    -0.74300
O14         O  0.84890909  0.25906089  0.54598516    -0.77800
O15         O  0.85069656  0.22077523  0.39756251    -0.78400
C16         C  0.85811595  0.25360300  0.57801490     0.96800
O17         O  0.86520328  0.26778793  0.46031442    -0.76400
O18         O  0.87948779  0.20778429  0.54580594    -0.81600
C19         C  0.89450168  0.20965003  0.44063414     0.99400
C20         C  0.86847941  0.19520577  0.54334532     1.05400
O21         O  0.87947223  0.20243123  0.43704095    -0.77200
C22         C  0.88114333  0.26920536  0.47222157     1.03700
Fe23       Fe  0.66272138  0.25451470  0.56417726     1.65800
Fe24       Fe  0.62588254  0.23486779  0.52309583     1.73200
Fe25       Fe  0.65387480  0.21125814  0.58942988     1.54400
O26         O  0.68034240  0.21312080  0.57421803    -0.81000
O27         O  0.61051221  0.22295292  0.57029731    -0.79300
O28         O  0.68517224  0.24043331  0.54999763    -0.64300
O29         O  0.66591058  0.25121496  0.63095682    -0.78300
O30         O  0.65062602  0.19607693  0.53350389    -0.80100
O31         O  0.61802919  0.25894109  0.54931316    -0.82900
C32         C  0.66254554  0.23935294  0.65920959     0.97900
C33         C  0.69028812  0.22482517  0.55778891     1.05300
O34         O  0.64748802  0.23352220  0.55885251    -1.11800
O35         O  0.63830035  0.24680420  0.47088821    -0.74300
O36         O  0.66156194  0.26077785  0.49826390    -0.77800
O37         O  0.65744070  0.22400603  0.64859351    -0.78400
C38         C  0.65160655  0.25667953  0.46639497     0.96800
O39         O  0.64193321  0.27111572  0.57863718    -0.76400
O40         O  0.63119251  0.21104779  0.49269398    -0.81600
C41         C  0.61318579  0.21135645  0.59960718     0.99400
C42         C  0.64086150  0.19765348  0.49979432     1.05400
O43         O  0.62845057  0.20582339  0.60928028    -0.77200
C44         C  0.62557524  0.27136989  0.57020195     1.03700
Fe45       Fe  0.84577982  0.28126255  0.98440763     1.65800
Fe46       Fe  0.88291921  0.30118218  0.02160454     1.73200
Fe47       Fe  0.85411533  0.32439054  0.95608789     1.54400
O48         O  0.84796018  0.31097849  0.89857425    -0.81000
O49         O  0.87750162  0.32458894  0.05298401    -0.79300
O50         O  0.84368442  0.28293216  0.91758266    -0.83500
O51         O  0.82318335  0.29534565  0.99328873    -0.78300
O52         O  0.87928605  0.32838555  0.93012488    -0.80100
O53         O  0.87145732  0.28856864  0.07409218    -0.82900
C54         C  0.81784163  0.31107939  0.98977306     0.97900
C55         C  0.84465339  0.29499350  0.88886599     1.05300
O56         O  0.86092936  0.30233792  0.98732777    -1.11800
O57         O  0.89095745  0.27753480  0.99428878    -0.74300
O58         O  0.86632715  0.26390356  0.97487754    -0.77800
O59         O  0.82796102  0.32353279  0.97762722    -0.78400
C60         C  0.88290731  0.26418808  0.97912873     0.96800
O61         O  0.84606600  0.27730063  0.05116143    -0.76400
O62         O  0.89746572  0.31364265  0.97405855    -0.81600
C63         C  0.86886499  0.33850834  0.04448117     0.99400
C64         C  0.89472261  0.32363054  0.94134272     1.05400
O65         O  0.85971343  0.34043382  0.00974601    -0.77200
C66         C  0.85727393  0.28028551  0.08108157     1.03700
Fe67       Fe  0.66163245  0.28628995  0.06417257     1.65800
Fe68       Fe  0.62424377  0.30543938  0.02636104     1.73200
Fe69       Fe  0.65312725  0.32967047  0.08875599     1.54400
O70         O  0.65711787  0.31733134  0.14855580    -0.81000
O71         O  0.62824960  0.32953606  0.99668247    -0.79300
O72         O  0.66653393  0.29046622  0.12993150    -0.83500
O73         O  0.68337521  0.30031772  0.04516238    -0.78300
O74         O  0.62772126  0.33537674  0.10986612    -0.80100
O75         O  0.63617825  0.29437177  0.97230532    -0.82900
C76         C  0.68892137  0.31578779  0.05272911     0.97900
C77         C  0.66303862  0.30218363  0.15861190     1.05300
O78         O  0.64631530  0.30714914  0.05980801    -1.11800
O79         O  0.61749349  0.28081888  0.05098556    -0.74300
O80         O  0.64140974  0.26977987  0.08288563    -0.77800
O81         O  0.67961019  0.32748473  0.07184917    -0.78400
C82         C  0.62523354  0.26879900  0.07283348     0.96800
O83         O  0.65878021  0.27921533  0.99914645    -0.76400
O84         O  0.60977542  0.31644742  0.07646756    -0.81600
C85         C  0.63870445  0.34253287  0.00010805     0.99400
C86         C  0.61253807  0.32879721  0.10387302     1.05400
O87         O  0.64956454  0.34419364  0.03167400    -0.77200
C88         C  0.64898227  0.28383340  0.96745413     1.03700
Fe89       Fe  0.51829554  0.42896647  0.72536157     1.65800
Fe90       Fe  0.53738115  0.39100290  0.76208357     1.73200
Fe91       Fe  0.56088333  0.41924445  0.69567553     1.54400
O92         O  0.54750386  0.42438866  0.63780145    -0.81000
O93         O  0.56093799  0.39616783  0.79284971    -0.79300
O94         O  0.52039120  0.43210334  0.65834372    -0.83500
O95         O  0.53291005  0.45101403  0.73799023    -0.78300
O96         O  0.56529962  0.39394368  0.67241607    -0.80100
O97         O  0.52494960  0.40268352  0.81542038    -0.82900
C98         C  0.54864571  0.45567056  0.73112702     0.97900
C99         C  0.53194656  0.42939405  0.62882682     1.05300
O100        O  0.53887774  0.41304261  0.72765708    -1.11800
O101        O  0.51358425  0.38373253  0.73485960    -0.74300
O102        O  0.50088889  0.40873975  0.71325227    -0.77800
O103        O  0.56011327  0.44552693  0.71417782    -0.78400
C104        C  0.50072647  0.39212291  0.71821862     0.96800
O105        O  0.51361341  0.42801050  0.79189501    -0.76400
O106        O  0.54963473  0.37579173  0.71439879    -0.81600
C107        C  0.57465347  0.40522032  0.78487501     0.99400
C108        C  0.56037243  0.37854291  0.68303873     1.05400
O109        O  0.57653319  0.41452460  0.75029294    -0.77200
C110        C  0.51657745  0.41692652  0.82211853     1.03700
Fe111      Fe  0.52130210  0.60969276  0.81432815     1.65800
Fe112      Fe  0.53894742  0.64725775  0.77194860     1.73200
Fe113      Fe  0.56474992  0.61952465  0.83243427     1.54400
O114        O  0.55367787  0.61691903  0.89398730    -0.81000
O115        O  0.56219273  0.64293416  0.73832251    -0.79300
O116        O  0.52703244  0.60586895  0.88028357    -0.83500
O117        O  0.53546941  0.58803907  0.79497632    -0.78300
O118        O  0.57102584  0.64536712  0.84902453    -0.80100
O119        O  0.52658793  0.63460647  0.72133383    -0.82900
C120        C  0.55104575  0.58292696  0.80222068     0.97900
C121        C  0.53904209  0.61070896  0.90686716     1.05300
O122        O  0.54164416  0.62552448  0.80628867    -1.11800
O123        O  0.51529695  0.65392567  0.80129605    -0.74300
O124        O  0.50469464  0.62981680  0.83365078    -0.77800
O125        O  0.56259063  0.59268022  0.82002653    -0.78400
C126        C  0.50374125  0.64612636  0.82445374     0.96800
O127        O  0.51282145  0.61139216  0.74962559    -0.76400
O128        O  0.55114298  0.66281180  0.81800759    -0.81600
C129        C  0.57529138  0.63250917  0.74072208     0.99400
C130        C  0.56441013  0.66053871  0.84249616     1.05400
O131        O  0.57760553  0.62193095  0.77268680    -0.77200
C132        C  0.51660894  0.62135804  0.71742192     1.03700
Fe133      Fe  0.48855849  0.42963879  0.22113565     1.65800
Fe134      Fe  0.46864695  0.39261698  0.25731999     1.73200
Fe135      Fe  0.44497261  0.42313239  0.20136090     1.54400
O136        O  0.44894329  0.44964535  0.21796208    -0.81000
O137        O  0.45902890  0.37933081  0.20365349    -0.79300
O138        O  0.47598833  0.45134489  0.24553769    -0.83500
O139        O  0.48314911  0.43665173  0.15675354    -0.78300
O140        O  0.43178886  0.42019140  0.26067965    -0.80100
O141        O  0.49387244  0.38657630  0.23579034    -0.82900
C142        C  0.47121747  0.43293438  0.12893560     0.97900
C143        C  0.46105287  0.45806289  0.23797663     1.05300
O144        O  0.46738668  0.41517148  0.22649935    -1.11800
O145        O  0.47819315  0.40464005  0.31305047    -0.74300
O146        O  0.49663570  0.42452480  0.28504371    -0.77800
O147        O  0.45643062  0.42651484  0.14019340    -0.78400
C148        C  0.49024299  0.41609075  0.31755997     0.96800
O149        O  0.50338946  0.40925607  0.19627784    -0.76400
O150        O  0.44358680  0.39486891  0.28360911    -0.81600
C151        C  0.44506323  0.38238212  0.18209282     0.99400
C152        C  0.43174669  0.40668698  0.28533786     1.05400
O153        O  0.43779552  0.39759249  0.18168383    -0.77200
C154        C  0.50501665  0.39356097  0.20988757     1.03700
Fe155      Fe  0.49323603  0.61588176  0.31231411     1.65800
Fe156      Fe  0.47317313  0.65259015  0.27332894     1.73200
Fe157      Fe  0.44974931  0.62299227  0.33414897     1.54400
O158        O  0.45343085  0.59643749  0.31962107    -0.81000
O159        O  0.46257286  0.66684881  0.32452632    -0.79300
O160        O  0.48032443  0.59372737  0.29129321    -0.83500
O161        O  0.48820485  0.61012607  0.37785662    -0.78300
O162        O  0.43596095  0.62525196  0.27621426    -0.80100
O163        O  0.49793204  0.65951019  0.29603233    -0.82900
C164        C  0.47620438  0.61378851  0.40579368     0.97900
C165        C  0.46529297  0.58745441  0.30017047     1.05300
O166        O  0.47205759  0.63049086  0.30662759    -1.11800
O167        O  0.48366160  0.64035029  0.21893978    -0.74300
O168        O  0.50104303  0.61968527  0.24756681    -0.77800
O169        O  0.46145927  0.62022225  0.39467392    -0.78400
C170        C  0.49533197  0.62849724  0.21494881     0.96800
O171        O  0.50845197  0.63663302  0.33345626    -0.76400
O172        O  0.44874285  0.64873469  0.24552115    -0.81600
C173        C  0.44920472  0.66378981  0.34841512     0.99400
C174        C  0.43656331  0.63729367  0.24729965     1.05400
O175        O  0.44262594  0.64844572  0.35219202    -0.77200
C176        C  0.50953124  0.65250853  0.32054167     1.03700
Fe177      Fe  0.34720346  0.75515493  0.97131269     1.65800
Fe178      Fe  0.38435588  0.73647227  0.01102340     1.73200
Fe179      Fe  0.35682996  0.71193880  0.94608545     1.54400
O180        O  0.33127217  0.71190014  0.96947941    -0.81000
O181        O  0.39916534  0.72106919  0.96903222    -0.79300
O182        O  0.32483843  0.74031696  0.97948787    -0.83500
O183        O  0.34607959  0.75282712  0.90380944    -0.78300
O184        O  0.36360678  0.69695920  0.00048020    -0.80100
O185        O  0.39284952  0.75836493  0.97642979    -0.82900
C186        C  0.34656932  0.74007872  0.87649136     0.97900
C187        C  0.32065054  0.72412131  0.98005415     1.05300
O188        O  0.36278881  0.73449107  0.97590311    -1.11800
O189        O  0.37320745  0.75206564  0.05960283    -0.74300
O190        O  0.34634477  0.75953327  0.03835282    -0.77800
O191        O  0.34950746  0.72424252  0.88805081    -0.78400
C192        C  0.35830359  0.75894424  0.06734820     0.96800
O193        O  0.36784029  0.77298218  0.96368061    -0.76400
O194        O  0.37744589  0.71480906  0.04797498    -0.81600
C195        C  0.39684991  0.71175692  0.93470868     0.99400
C196        C  0.37053336  0.70007561  0.03788763     1.05400
O197        O  0.38165715  0.70875366  0.91918910    -0.77200
C198        C  0.38457219  0.77206436  0.96404005     1.03700
Fe199      Fe  0.16469121  0.75368949  0.05889171     1.65800
Fe200      Fe  0.12778603  0.73497967  0.01519737     1.73200
Fe201      Fe  0.15642826  0.70969924  0.07580518     1.54400
O202        O  0.18236218  0.71147979  0.05527324    -0.81000
O203        O  0.11294852  0.72138159  0.06054486    -0.79300
O204        O  0.18731630  0.74007408  0.04511289    -0.83500
O205        O  0.16709486  0.74927726  0.12530774    -0.78300
O206        O  0.15138045  0.69574910  0.01872699    -0.80100
O207        O  0.11988280  0.75796947  0.04579232    -0.82900
C208        C  0.16566741  0.73605332  0.15058916     0.97900
C209        C  0.19238506  0.72414409  0.04459548     1.05300
O210        O  0.14961514  0.73276806  0.04998908    -1.11800
O211        O  0.13988557  0.74876951  0.96528603    -0.74300
O212        O  0.16418393  0.76060769  0.99354823    -0.77800
O213        O  0.16206298  0.72070020  0.13648299    -0.78400
C214        C  0.15377680  0.75790001  0.96165507     0.96800
O215        O  0.14398857  0.77025966  0.07341707    -0.76400
O216        O  0.13272796  0.71229126  0.98003293    -0.81600
C217        C  0.11594305  0.70989564  0.09000637     0.99400
C218        C  0.14166305  0.69830150  0.98535271     1.05400
O219        O  0.13137733  0.70464726  0.09925001    -0.77200
C220        C  0.12756390  0.77037492  0.06617612     1.03700
Fe221      Fe  0.34550730  0.78725441  0.46885950     1.65800
Fe222      Fe  0.38330066  0.80472998  0.51065719     1.73200
Fe223      Fe  0.35561039  0.83085556  0.45036986     1.54400
O224        O  0.35187511  0.81959917  0.38880447    -0.81000
O225        O  0.37961785  0.82809237  0.54398086    -0.79300
O226        O  0.34176238  0.79253122  0.40267637    -0.83500
O227        O  0.32382106  0.80160135  0.48689146    -0.78300
O228        O  0.38133166  0.83635221  0.43153656    -0.80100
O229        O  0.37062083  0.79257430  0.56204289    -0.82900
C230        C  0.31887770  0.81736521  0.48088842     0.97900
C231        C  0.34587191  0.80478969  0.37602781     1.05300
O232        O  0.36146719  0.80762147  0.47663672    -1.11800
O233        O  0.38959349  0.78084775  0.48203955    -0.74300
O234        O  0.36539248  0.77032121  0.45039268    -0.77800
O235        O  0.32887596  0.82918130  0.46498067    -0.78400
C236        C  0.38161779  0.76918739  0.45958805     0.96800
O237        O  0.34715675  0.77912970  0.53388860    -0.76400
O238        O  0.39883385  0.81674966  0.46371497    -0.81600
C239        C  0.36983336  0.84164244  0.54150976     0.99400
C240        C  0.39647553  0.82972589  0.43800823     1.05400
O241        O  0.35924160  0.84429546  0.50966830    -0.77200
C242        C  0.35724924  0.78273715  0.56596695     1.03700
Fe243      Fe  0.16677988  0.77880268  0.56060901     1.65800
Fe244      Fe  0.12836154  0.79501069  0.51888694     1.73200
Fe245      Fe  0.15493278  0.82186349  0.58031786     1.54400
O246        O  0.16309522  0.81113559  0.63908319    -0.81000
O247        O  0.13309834  0.81695847  0.48067219    -0.79300
O248        O  0.16838575  0.78254837  0.62770761    -0.83500
O249        O  0.18847274  0.79440578  0.54941414    -0.78300
O250        O  0.12996374  0.82428721  0.60729680    -0.80100
O251        O  0.14064677  0.78010246  0.47097087    -0.82900
C252        C  0.19174922  0.81078907  0.54754041     0.97900
C253        C  0.16726048  0.79591784  0.65291089     1.05300
O254        O  0.15001875  0.79855763  0.55342478    -1.11800
O255        O  0.12154308  0.77261921  0.55326956    -0.74300
O256        O  0.14711345  0.76032156  0.57180858    -0.77800
O257        O  0.18043865  0.82257596  0.55672362    -0.78400
C258        C  0.13041998  0.75986154  0.56886247     0.96800
O259        O  0.16742736  0.77295650  0.49440413    -0.76400
O260        O  0.11259563  0.80951334  0.56134397    -0.81600
C261        C  0.13958064  0.83205501  0.48890980     0.99400
C262        C  0.11476167  0.81982557  0.59400064     1.05400
O263        O  0.14734130  0.83563090  0.52490529    -0.77200
C264        C  0.15570519  0.77329481  0.46482620     1.03700
Fe265      Fe  0.01913705  0.42448905  0.82541262     1.65800
Fe266      Fe  0.03761926  0.38811797  0.77817724     1.73200
Fe267      Fe  0.06223108  0.41427221  0.84595691     1.54400
O268        O  0.06225139  0.44008520  0.82470133    -0.81000
O269        O  0.05293896  0.37218149  0.81790278    -0.79300
O270        O  0.03386200  0.44742537  0.82225533    -0.83500
O271        O  0.02164711  0.42355258  0.89294151    -0.78300
O272        O  0.07708525  0.40807512  0.79104397    -0.80100
O273        O  0.01569146  0.37888907  0.81129440    -0.82900
C274        C  0.03474282  0.42297301  0.91886946     0.97900
C275        C  0.05008638  0.45136755  0.81975899     1.05300
O276        O  0.03967106  0.40896316  0.81659384    -1.11800
O277        O  0.02203432  0.40070243  0.73240334    -0.74300
O278        O  0.01441027  0.42705774  0.75850625    -0.77800
O279        O  0.05042865  0.42092344  0.90526668    -0.78400
C280        C  0.01485057  0.41568947  0.72764233     0.96800
O281        O  0.00154784  0.40357910  0.82997071    -0.76400
O282        O  0.05930714  0.39553566  0.74154634    -0.81600
C283        C  0.06204136  0.37401632  0.85269484     0.99400
C284        C  0.07413419  0.40182226  0.75284504     1.05400
O285        O  0.06501606  0.38900298  0.86991065    -0.77200
C286        C  0.00218894  0.38684629  0.82624127     1.03700
Fe287      Fe  0.02295904  0.60287019  0.71271926     1.65800
Fe288      Fe  0.04078862  0.63992762  0.75463738     1.73200
Fe289      Fe  0.06598446  0.61225589  0.69204319     1.54400
O290        O  0.06592609  0.58718560  0.71905772    -0.81000
O291        O  0.05700899  0.65461109  0.71403500    -0.79300
O292        O  0.03763918  0.57992287  0.71474746    -0.83500
O293        O  0.02510307  0.60387276  0.64581732    -0.78300
O294        O  0.08049822  0.62045337  0.74628238    -0.80100
O295        O  0.01955307  0.64860453  0.71843746    -0.82900
C296        C  0.03828285  0.60252408  0.62026313     0.97900
C297        C  0.05363239  0.57592956  0.72145769     1.05300
O298        O  0.04330806  0.61839968  0.71954580    -1.11800
O299        O  0.02421228  0.62841151  0.80048934    -0.74300
O300        O  0.01959271  0.60062561  0.77955945    -0.77800
O301        O  0.05412915  0.60359225  0.63376905    -0.78400
C302        C  0.01859008  0.61291929  0.80785253     0.96800
O303        O  0.00485099  0.62353954  0.70957868    -0.76400
O304        O  0.06170532  0.63297016  0.79378898    -0.81600
C305        C  0.06602785  0.65212486  0.67917157     0.99400
C306        C  0.07690512  0.62718947  0.78380293     1.05400
O307        O  0.06872179  0.63681890  0.66323238    -0.77200
C308        C  0.00558216  0.64031348  0.70862700     1.03700
Fe309      Fe  0.99023970  0.42475836  0.32811259     1.65800
Fe310      Fe  0.97152100  0.38724079  0.28810264     1.73200
Fe311      Fe  0.94627619  0.41699152  0.34575675     1.54400
O312        O  0.95692256  0.42206143  0.40694361    -0.81000
O313        O  0.94859808  0.39146387  0.25344629    -0.79300
O314        O  0.98440241  0.43058589  0.39323834    -0.83500
O315        O  0.97711603  0.44647471  0.30558543    -0.78300
O316        O  0.94007269  0.39182930  0.36846932    -0.80100
O317        O  0.98451995  0.39852486  0.23623435    -0.82900
C318        C  0.96148144  0.45213297  0.30889132     0.97900
C319        C  0.97171377  0.42785168  0.41972437     1.05300
O320        O  0.96932624  0.40963551  0.32074365    -1.11800
O321        O  0.99496895  0.38032670  0.31799672    -0.74300
O322        O  0.00562057  0.40438511  0.35085719    -0.77800
O323        O  0.94911876  0.44317906  0.32617715    -0.78400
C324        C  0.00639886  0.38805790  0.34167591     0.96800
O325        O  0.99925123  0.42122546  0.26404490    -0.76400
O326        O  0.95861798  0.37312324  0.33588159    -0.81600
C327        C  0.93540644  0.40173394  0.25579170     0.99400
C328        C  0.94615625  0.37633998  0.36264706     1.05400
O329        O  0.93303651  0.41252100  0.28739718    -0.77200
C330        C  0.99532841  0.41110133  0.23212481     1.03700
Fe331      Fe  0.99482889  0.60667701  0.21334163     1.65800
Fe332      Fe  0.97489283  0.64342125  0.25535034     1.73200
Fe333      Fe  0.95124151  0.61476081  0.19073226     1.54400
O334        O  0.96343234  0.60795152  0.13234575    -0.81000
O335        O  0.95234731  0.63743241  0.28953383    -0.79300
O336        O  0.99197452  0.60463096  0.14631168    -0.83500
O337        O  0.98113690  0.58377605  0.22396016    -0.78300
O338        O  0.94725328  0.63966392  0.16438313    -0.80100
O339        O  0.98859421  0.63164806  0.30593905    -0.82900
C340        C  0.96519479  0.57887647  0.22406989     0.97900
C341        C  0.97909653  0.60500729  0.11983710     1.05300
O342        O  0.97362954  0.62161363  0.21979708    -1.11800
O343        O  0.99772376  0.65200909  0.22551053    -0.74300
O344        O  0.01132639  0.62770786  0.20224066    -0.77800
O345        O  0.95256892  0.58902775  0.21351531    -0.78400
C346        C  0.01075534  0.64430590  0.20763253     0.96800
O347        O  0.00036952  0.60684032  0.27961074    -0.76400
O348        O  0.96122526  0.65810742  0.20959503    -0.81600
C349        C  0.93820247  0.62934055  0.28065709     0.99400
C350        C  0.95151704  0.65516971  0.17630841     1.05400
O351        O  0.93583992  0.62084597  0.24500602    -0.77200
C352        C  0.99735293  0.61754350  0.31091309     1.03700
Fe353      Fe  0.51750214  0.11358807  0.22138352     1.65800
Fe354      Fe  0.53736806  0.15008848  0.26436744     1.73200
Fe355      Fe  0.56135451  0.12109387  0.20046323     1.54400
O356        O  0.55902568  0.09487677  0.21994557    -0.81000
O357        O  0.55046242  0.16486477  0.21767025    -0.79300
O358        O  0.53070611  0.09067196  0.23513513    -0.83500
O359        O  0.52149307  0.11070277  0.15458089    -0.78300
O360        O  0.57599880  0.12542223  0.25669047    -0.80100
O361        O  0.51412085  0.15850415  0.23600974    -0.82900
C362        C  0.53421054  0.11242678  0.12773526     0.97900
C363        C  0.54643010  0.08515963  0.23305868     1.05300
O364        O  0.53877381  0.12826097  0.22875553    -1.11800
O365        O  0.52411615  0.13807657  0.31577689    -0.74300
O366        O  0.51078457  0.11454817  0.28738790    -0.77800
O367        O  0.54968031  0.11619433  0.14023056    -0.78400
C368        C  0.51436638  0.12457932  0.31971887     0.96800
O369        O  0.50147477  0.13476426  0.20687758    -0.76400
O370        O  0.56041696  0.14455343  0.29711525    -0.81600
C371        C  0.56156803  0.16186525  0.18716820     0.99400
C372        C  0.57397768  0.13508171  0.29060853     1.05400
O373        O  0.56678165  0.14634767  0.17764703    -0.77200
C374        C  0.50167482  0.15120414  0.21495082     1.03700
Fe375      Fe  0.52333480  0.92916916  0.32142924     1.65800
Fe376      Fe  0.54257365  0.89131829  0.28619308     1.73200
Fe377      Fe  0.56685617  0.92161304  0.34359568     1.54400
O378        O  0.56404595  0.94795649  0.32459069    -0.81000
O379        O  0.55305378  0.87779319  0.33852589    -0.79300
O380        O  0.53678121  0.95060584  0.29873477    -0.83500
O381        O  0.52816407  0.93573216  0.38617509    -0.78300
O382        O  0.58089690  0.91730787  0.28603323    -0.80100
O383        O  0.51760052  0.88528362  0.31033653    -0.82900
C384        C  0.54010487  0.93270810  0.41441424     0.97900
C385        C  0.55208116  0.95667874  0.30494672     1.05300
O386        O  0.54427821  0.91402139  0.31719273    -1.11800
O387        O  0.53227644  0.90279894  0.23087277    -0.74300
O388        O  0.51578276  0.92474105  0.25709232    -0.77800
O389        O  0.55504860  0.92641601  0.40389617    -0.78400
C390        C  0.52126246  0.91516839  0.22549731     0.96800
O391        O  0.50734310  0.90923433  0.34414431    -0.76400
O392        O  0.56701020  0.89412499  0.25680019    -0.81600
C393        C  0.56621188  0.88104169  0.36291394     0.99400
C394        C  0.57968261  0.90504355  0.25757494     1.05400
O395        O  0.57307507  0.89633430  0.36565544    -0.77200
C396        C  0.50594142  0.89311181  0.33345034     1.03700
Fe397      Fe  0.48878093  0.11240735  0.72084835     1.65800
Fe398      Fe  0.46946367  0.14978420  0.75895917     1.73200
Fe399      Fe  0.44503666  0.11963021  0.70284036     1.54400
O400        O  0.45616667  0.11624699  0.64138493    -0.81000
O401        O  0.44527208  0.14668158  0.78938946    -0.79300
O402        O  0.48274708  0.10534308  0.65624891    -0.83500
O403        O  0.47599376  0.09086293  0.74629994    -0.78300
O404        O  0.43778041  0.14501761  0.68373405    -0.80100
O405        O  0.48052970  0.13817113  0.81313466    -0.82900
C406        C  0.46080693  0.08454248  0.73938798     0.97900
C407        C  0.47071095  0.10955455  0.62908562     1.05300
O408        O  0.46774291  0.12725708  0.72761784    -1.11800
O409        O  0.49401715  0.15593120  0.73362981    -0.74300
O410        O  0.50358010  0.13272639  0.69526670    -0.77800
O411        O  0.44885611  0.09312331  0.71922085    -0.78400
C412        C  0.50504675  0.14865827  0.70774851     0.96800
O413        O  0.49793646  0.11748509  0.78430611    -0.76400
O414        O  0.45849123  0.16349539  0.70745792    -0.81600
C415        C  0.43297317  0.13532691  0.78990892     0.99400
C416        C  0.44468696  0.16030495  0.68542584     1.05400
O417        O  0.43188931  0.12284400  0.76200840    -0.77200
C418        C  0.49257285  0.12669311  0.81687576     1.03700
Fe419      Fe  0.49430632  0.92893692  0.81868163     1.65800
Fe420      Fe  0.47547437  0.89102444  0.78027060     1.73200
Fe421      Fe  0.45137565  0.91966894  0.84480319     1.54400
O422        O  0.46429113  0.92388499  0.90415126    -0.81000
O423        O  0.45135012  0.89502014  0.75092694    -0.79300
O424        O  0.49122749  0.93253272  0.88497512    -0.83500
O425        O  0.47996853  0.95112683  0.80406296    -0.78300
O426        O  0.44606788  0.89420536  0.86517029    -0.80100
O427        O  0.48680905  0.90347207  0.72631013    -0.82900
C428        C  0.46435970  0.95626349  0.81131460     0.97900
C429        C  0.47969984  0.92914430  0.91392269     1.05300
O430        O  0.47368500  0.91317081  0.81454532    -1.11800
O431        O  0.49995984  0.88423934  0.80511947    -0.74300
O432        O  0.51151237  0.90875577  0.83323559    -0.77800
O433        O  0.45276826  0.94628150  0.82825913    -0.78400
C434        C  0.51229082  0.89237440  0.82478512     0.96800
O435        O  0.50014662  0.92730130  0.75312559    -0.76400
O436        O  0.46405358  0.87573409  0.82955022    -0.81600
C437        C  0.43786360  0.90470249  0.75671796     0.99400
C438        C  0.45174764  0.87876122  0.85710562     1.05400
O439        O  0.43626622  0.91547188  0.78881376    -0.77200
C440        C  0.49628853  0.91713974  0.72146456     1.03700
Fe441      Fe  0.85085978  0.77916622  0.06442851     1.65800
Fe442      Fe  0.88673919  0.79889034  0.01963678     1.73200
Fe443      Fe  0.85819563  0.82317944  0.08224098     1.54400
O444        O  0.83145709  0.81937226  0.07199316    -0.81000
O445        O  0.90169338  0.81032870  0.06769092    -0.79300
O446        O  0.82804924  0.79180962  0.04818165    -0.83500
O447        O  0.84726522  0.78455515  0.13092152    -0.78300
O448        O  0.85944404  0.83652188  0.02278947    -0.80100
O449        O  0.89458908  0.77453595  0.04372560    -0.82900
C450        C  0.85113634  0.79708020  0.15723887     0.97900
C451        C  0.82199780  0.80701780  0.05652905     1.05300
O452        O  0.86521512  0.80040661  0.05537581    -1.11800
O453        O  0.87387347  0.78737596  0.96812841    -0.74300
O454        O  0.85263596  0.77127505  0.99886950    -0.77800
O455        O  0.85660238  0.81199417  0.14400312    -0.78400
C456        C  0.86158216  0.77617400  0.96553966     0.96800
O457        O  0.87204281  0.76378192  0.08172702    -0.76400
O458        O  0.88204835  0.82290161  0.98995819    -0.81600
C459        C  0.89906140  0.82389818  0.09125380     0.99400
C460        C  0.87086938  0.83536128  0.99220187     1.05400
O461        O  0.88383603  0.83055718  0.09665542    -0.77200
C462        C  0.88783713  0.76282724  0.06840035     1.03700
Fe463      Fe  0.66697186  0.78297095  0.96995404     1.65800
Fe464      Fe  0.62953833  0.80246505  0.00829769     1.73200
Fe465      Fe  0.65964448  0.82710919  0.95110880     1.54400
O466        O  0.68553735  0.82410969  0.97167118    -0.81000
O467        O  0.61579560  0.81501671  0.95927521    -0.79300
O468        O  0.68875375  0.79603550  0.99206924    -0.83500
O469        O  0.67278057  0.78813740  0.90467680    -0.78300
O470        O  0.65488710  0.84105434  0.00877249    -0.80100
O471        O  0.62259744  0.77868747  0.97925656    -0.82900
C472        C  0.67037152  0.80079249  0.87798845     0.97900
C473        C  0.69438621  0.81169252  0.98900103     1.05300
O474        O  0.65203437  0.80420779  0.97637455    -1.11800
O475        O  0.64075440  0.79001064  0.06116112    -0.74300
O476        O  0.66337692  0.77476654  0.03423927    -0.77800
O477        O  0.66492790  0.81585953  0.89042782    -0.78400
C478        C  0.65343100  0.77933619  0.06596330     0.96800
O479        O  0.64662687  0.76742845  0.94792254    -0.76400
O480        O  0.63349652  0.82584811  0.04185904    -0.81600
C481        C  0.61928562  0.82742828  0.93267271     0.99400
C482        C  0.64366723  0.83909522  0.03950414     1.05400
O483        O  0.63477840  0.83342913  0.92756550    -0.77200
C484        C  0.63026966  0.76690087  0.95627597     1.03700
Fe485      Fe  0.85029028  0.75114494  0.56525982     1.65800
Fe486      Fe  0.88760870  0.73232876  0.52393986     1.73200
Fe487      Fe  0.85825973  0.70705340  0.58246999     1.54400
O488        O  0.85387656  0.71800359  0.64373123    -0.81000
O489        O  0.88364436  0.70885883  0.49098470    -0.79300
O490        O  0.84641031  0.74606195  0.63137842    -0.83500
O491        O  0.82799511  0.73788090  0.54814148    -0.78300
O492        O  0.88367903  0.70077836  0.60334061    -0.80100
O493        O  0.87569157  0.74489462  0.47199304    -0.82900
C494        C  0.82221103  0.72229290  0.55091541     0.97900
C495        C  0.84906927  0.73314049  0.65716308     1.05300
O496        O  0.86539767  0.73015927  0.55726166    -1.11800
O497        O  0.89469433  0.75627656  0.55189309    -0.74300
O498        O  0.87068005  0.76746916  0.58323451    -0.77800
O499        O  0.83173437  0.70963184  0.56474392    -0.78400
C500        C  0.88691474  0.76830109  0.57378691     0.96800
O501        O  0.85226935  0.75871762  0.49990697    -0.76400
O502        O  0.90210868  0.71981596  0.57182370    -0.81600
C503        C  0.87352253  0.69558365  0.49359916     0.99400
C504        C  0.89909185  0.70693602  0.59745233     1.05400
O505        O  0.86229230  0.69360069  0.52421763    -0.77200
C506        C  0.86245539  0.75497143  0.46791051     1.03700
Fe507      Fe  0.66744715  0.75478558  0.47147335     1.65800
Fe508      Fe  0.63000762  0.73687488  0.51424093     1.73200
Fe509      Fe  0.65709532  0.71171332  0.44801266     1.54400
O510        O  0.66228405  0.72363737  0.38857788    -0.81000
O511        O  0.63367123  0.71277558  0.54420396    -0.79300
O512        O  0.67081576  0.75090863  0.40474541    -0.83500
O513        O  0.68913413  0.73984074  0.48669998    -0.78300
O514        O  0.63150466  0.70829825  0.42612456    -0.80100
O515        O  0.64298168  0.74834290  0.56644830    -0.82900
C516        C  0.69369394  0.72381780  0.48216436     0.97900
C517        C  0.66766552  0.73874214  0.37706190     1.05300
O518        O  0.65151740  0.73442297  0.47799543    -1.11800
O519        O  0.62345215  0.76131299  0.48902744    -0.74300
O520        O  0.64732480  0.77199730  0.45589595    -0.77800
O521        O  0.68349790  0.71212960  0.46629549    -0.78400
C522        C  0.63118754  0.77310844  0.46652441     0.96800
O523        O  0.66630939  0.76172520  0.53727601    -0.76400
O524        O  0.61426273  0.72583932  0.46649787    -0.81600
C525        C  0.64230935  0.69871799  0.53667225     0.99400
C526        C  0.61647326  0.71467386  0.43570286     1.05400
O527        O  0.65217980  0.69671783  0.50322325    -0.77200
C528        C  0.65640599  0.75815894  0.56978367     1.03700
Fe529      Fe  0.34416775  0.28651549  0.57226219     1.65800
Fe530      Fe  0.38189303  0.30460551  0.53737816     1.73200
Fe531      Fe  0.35290835  0.32950761  0.59553851     1.54400
O532        O  0.32640513  0.32699469  0.57851219    -0.81000
O533        O  0.39548110  0.31264390  0.59201856    -0.79300
O534        O  0.32384344  0.30068483  0.54581072    -0.83500
O535        O  0.33617146  0.29232370  0.63590940    -0.78300
O536        O  0.35686323  0.34332682  0.53735838    -0.80100
O537        O  0.38604459  0.27863378  0.55605660    -0.82900
C538        C  0.34070838  0.30338550  0.66532586     0.97900
C539        C  0.31784970  0.31585050  0.55546709     1.05300
O540        O  0.35961830  0.30693420  0.56852375    -1.11800
O541        O  0.36940386  0.29660446  0.48072136    -0.74300
O542        O  0.34997319  0.27777100  0.50888917    -0.77800
O543        O  0.34868991  0.31762358  0.65595519    -0.78400
C544        C  0.35831559  0.28421978  0.47625121     0.96800
O545        O  0.36361815  0.27078790  0.59882725    -0.76400
O546        O  0.38151486  0.33021735  0.51443297    -0.81600
C547        C  0.39340689  0.32690168  0.61352748     0.99400
C548        C  0.37079216  0.34307363  0.51409849     1.05400
O549        O  0.37867962  0.33500984  0.61524474    -0.77200
C550        C  0.37890437  0.26807805  0.58321051     1.03700
Fe551      Fe  0.16299038  0.27935791  0.48041310     1.65800
Fe552      Fe  0.12682822  0.29856045  0.52526089     1.73200
Fe553      Fe  0.15372846  0.32269914  0.45800985     1.54400
O554        O  0.17949912  0.32229589  0.47994705    -0.81000
O555        O  0.11174993  0.31425907  0.48517597    -0.79300
O556        O  0.18579572  0.29369733  0.48514798    -0.83500
O557        O  0.16300915  0.28171303  0.41333020    -0.78300
O558        O  0.14728696  0.33786259  0.51267323    -0.80100
O559        O  0.11746282  0.27674886  0.49173411    -0.82900
C560        C  0.16318225  0.29463780  0.38686066     0.97900
C561        C  0.19033752  0.30979546  0.48635636     1.05300
O562        O  0.14786068  0.30023772  0.48774770    -1.11800
O563        O  0.13860285  0.28293201  0.57207530    -0.74300
O564        O  0.16486084  0.27469278  0.54693349    -0.77800
O565        O  0.16081839  0.31048370  0.39935031    -0.78400
C566        C  0.15350195  0.27576057  0.57744910     0.96800
O567        O  0.14201791  0.26219438  0.47453846    -0.76400
O568        O  0.13437605  0.32012591  0.56172868    -0.81600
C569        C  0.11364721  0.32344059  0.45056858     0.99400
C570        C  0.14068237  0.33498566  0.55058599     1.05400
O571        O  0.12859453  0.32595637  0.43279982    -0.77200
C572        C  0.12534258  0.26312835  0.47708614     1.03700
Fe573      Fe  0.34317174  0.25623186  0.07202134     1.65800
Fe574      Fe  0.38040077  0.23877731  0.02671840     1.73200
Fe575      Fe  0.35453296  0.21327345  0.09407999     1.54400
O576        O  0.35043233  0.22520090  0.15447043    -0.81000
O577        O  0.37694005  0.21450224  0.99685509    -0.79300
O578        O  0.34021122  0.25195199  0.13878380    -0.83500
O579        O  0.32172137  0.24105870  0.05689780    -0.78300
O580        O  0.38056853  0.20968966  0.11264696    -0.80100
O581        O  0.36637889  0.24949746  0.97567529    -0.82900
C582        C  0.31735949  0.22506441  0.06241752     0.97900
C583        C  0.34441101  0.24008860  0.16633363     1.05300
O584        O  0.35939821  0.23606927  0.06431278    -1.11800
O585        O  0.38655623  0.26358070  0.05131105    -0.74300
O586        O  0.36303661  0.27361590  0.08741300    -0.77800
O587        O  0.32781634  0.21367898  0.07864464    -0.78400
C588        C  0.37889739  0.27521263  0.07488305     0.96800
O589        O  0.34382558  0.26366168  0.00638182    -0.76400
O590        O  0.39700610  0.22818410  0.07320760    -0.81600
C591        C  0.36808808  0.20057816  0.00383871     0.99400
C592        C  0.39538531  0.21639651  0.10258562     1.05400
O593        O  0.35845024  0.19847768  0.03766034    -0.77200
C594        C  0.35305764  0.25949347  0.97297239     1.03700
Fe595      Fe  0.16407815  0.25031499  0.97853470     1.65800
Fe596      Fe  0.12621881  0.23278299  0.01967017     1.73200
Fe597      Fe  0.15399379  0.20700991  0.95725170     1.54400
O598        O  0.15915911  0.21831624  0.89700997    -0.81000
O599        O  0.12964966  0.20907645  0.05182182    -0.79300
O600        O  0.16849657  0.24541241  0.91263867    -0.83500
O601        O  0.18548574  0.23570151  0.99695279    -0.78300
O602        O  0.12842095  0.20259145  0.93579638    -0.80100
O603        O  0.13875701  0.24459020  0.07160076    -0.82900
C604        C  0.19028486  0.21977348  0.99244224     0.97900
C605        C  0.16525076  0.23313816  0.88529368     1.05300
O606        O  0.14807193  0.23000062  0.98511669    -1.11800
O607        O  0.11993760  0.25683363  0.99153790    -0.74300
O608        O  0.14419644  0.26716231  0.95957842    -0.77800
O609        O  0.18041707  0.20801159  0.97560060    -0.78400
C610        C  0.12789120  0.26827403  0.96829644     0.96800
O611        O  0.16209516  0.25815295  0.04359478    -0.76400
O612        O  0.11088760  0.22108218  0.97248629    -0.81600
C613        C  0.13882938  0.19521177  0.04635410     0.99400
C614        C  0.11327221  0.20894326  0.94423734     1.05400
O615        O  0.14917646  0.19297227  0.01390519    -0.77200
C616        C  0.15213113  0.25437723  0.07579207     1.03700
Fe617      Fe  0.98886389  0.10859071  0.82038046     1.65800
Fe618      Fe  0.97067394  0.14647301  0.78221493     1.73200
Fe619      Fe  0.94575403  0.11783428  0.84301358     1.54400
O620        O  0.94788014  0.09119022  0.82612764    -0.81000
O621        O  0.95967112  0.16121180  0.83188823    -0.79300
O622        O  0.97472271  0.08747305  0.79764345    -0.83500
O623        O  0.98354909  0.10250413  0.88524295    -0.78300
O624        O  0.93190692  0.12153747  0.78556246    -0.80100
O625        O  0.99504418  0.15249088  0.80862947    -0.82900
C626        C  0.97194383  0.10674798  0.91356094     0.97900
C627        C  0.95929959  0.08196559  0.80564116     1.05300
O628        O  0.96840863  0.12433611  0.81520332    -1.11800
O629        O  0.98185258  0.13438349  0.72856682    -0.74300
O630        O  0.99739222  0.11226644  0.75649058    -0.77800
O631        O  0.95743757  0.11379754  0.90300249    -0.78400
C632        C  0.99284133  0.12191988  0.72441110     0.96800
O633        O  0.00491354  0.12850279  0.84297559    -0.76400
O634        O  0.94672736  0.14304292  0.75158664    -0.81600
C635        C  0.94711523  0.15858671  0.85861258     0.99400
C636        C  0.93371365  0.13259591  0.75452489     1.05400
O637        O  0.94024645  0.14343958  0.86396038    -0.77200
C638        C  0.00626676  0.14468991  0.83283098     1.03700
Fe639      Fe  0.99305144  0.92647307  0.71256194     1.65800
Fe640      Fe  0.97444042  0.88968121  0.75719781     1.73200
Fe641      Fe  0.94921954  0.91800934  0.69511405     1.54400
O642        O  0.95054046  0.94380323  0.71806323    -0.81000
O643        O  0.95986315  0.87471103  0.71330283    -0.79300
O644        O  0.97916088  0.94937307  0.72411807    -0.83500
O645        O  0.98894491  0.92806684  0.64610530    -0.78300
O646        O  0.93490584  0.91163922  0.75101172    -0.80100
O647        O  0.99678982  0.88120086  0.72433936    -0.82900
C648        C  0.97573789  0.92762160  0.62069834     0.97900
C649        C  0.96318327  0.95420006  0.72664492     1.05300
O650        O  0.97219430  0.91136831  0.72163416    -1.11800
O651        O  0.98931438  0.90175618  0.80601053    -0.74300
O652        O  0.99958449  0.92688762  0.77820341    -0.77800
O653        O  0.96022316  0.92476379  0.63463136    -0.78400
C654        C  0.99773780  0.91615612  0.80981541     0.96800
O655        O  0.00992312  0.90545842  0.69980556    -0.76400
O656        O  0.95224184  0.89532175  0.79417326    -0.81600
C657        C  0.94922716  0.87760712  0.68177903     0.99400
C658        C  0.93767890  0.90289112  0.78604424     1.05400
O659        O  0.94487456  0.89305912  0.66979839    -0.77200
C660        C  0.00954002  0.88883039  0.70513276     1.03700
Fe661      Fe  0.01755016  0.10908095  0.31947105     1.65800
Fe662      Fe  0.03747579  0.14526773  0.27548253     1.73200
Fe663      Fe  0.06110526  0.11714442  0.34190077     1.54400
O664        O  0.04900953  0.11242902  0.40171398    -0.81000
O665        O  0.06023472  0.13868108  0.24241348    -0.79300
O666        O  0.02097066  0.10686828  0.38610246    -0.83500
O667        O  0.03108904  0.08613626  0.30783546    -0.78300
O668        O  0.06616558  0.14258471  0.36372769    -0.80100
O669        O  0.02411147  0.13298277  0.22548483    -0.82900
C670        C  0.04687249  0.08084764  0.31083345     0.97900
C671        C  0.03346103  0.10849696  0.41339226     1.05300
O672        O  0.03872040  0.12387468  0.31243542    -1.11800
O673        O  0.01425418  0.15419940  0.30389390    -0.74300
O674        O  0.00130469  0.13034539  0.33173666    -0.77800
O675        O  0.05924952  0.09085721  0.32356550    -0.78400
C676        C  0.00151672  0.14678708  0.32376866     0.96800
O677        O  0.01136664  0.10917329  0.25358201    -0.76400
O678        O  0.05098704  0.16056709  0.32004137    -0.81600
C679        C  0.07382366  0.12945766  0.25028019     0.99400
C680        C  0.06164807  0.15797037  0.35149597     1.05400
O681        O  0.07601572  0.12098284  0.28589691    -0.77200
C682        C  0.01477079  0.11926480  0.22148551     1.03700
Fe683      Fe  0.02127016  0.92800544  0.21156261     1.65800
Fe684      Fe  0.03913238  0.89039739  0.25372369     1.73200
Fe685      Fe  0.06487659  0.91817326  0.19180780     1.54400
O686        O  0.05389551  0.92445977  0.13162109    -0.81000
O687        O  0.06186911  0.89473934  0.28831045    -0.79300
O688        O  0.02605834  0.93184078  0.14515214    -0.83500
O689        O  0.03566378  0.94972007  0.22907888    -0.78300
O690        O  0.06898476  0.89286370  0.16770393    -0.80100
O691        O  0.02607723  0.90261751  0.30432474    -0.82900
C692        C  0.05172345  0.95418439  0.22766634     0.97900
C693        C  0.03889023  0.92968295  0.11878033     1.05300
O694        O  0.04178011  0.91218053  0.21892707    -1.11800
O695        O  0.01593117  0.88337704  0.22348255    -0.74300
O696        O  0.00463549  0.90775488  0.19400481    -0.77800
O697        O  0.06385206  0.94420874  0.21295255    -0.78400
C698        C  0.00406318  0.89131551  0.20176602     0.96800
O699        O  0.01337861  0.92659438  0.27690302    -0.76400
O700        O  0.05210977  0.87519376  0.20819698    -0.81600
C701        C  0.07612691  0.90304948  0.28218897     0.99400
C702        C  0.06338203  0.87761186  0.17797378     1.05400
O703        O  0.07902723  0.91241352  0.24825265    -0.77200
C704        C  0.01654767  0.91620768  0.30866254     1.03700
C705        C  0.05002938  0.99529319  0.29684253    -0.27500
C706        C  0.05876997  0.00737511  0.26955703     0.06100
C707        C  0.06730514  0.00137497  0.23106283     0.25700
C708        C  0.06607124  0.98358024  0.21868754    -0.12000
C709        C  0.05613039  0.97182397  0.24438729    -0.25900
C710        C  0.04863947  0.97765643  0.28434680     0.36500
C711        C  0.05640690  0.02635329  0.27821777     0.06100
F712        F  0.07557589  0.01293505  0.20384404    -0.19700
H713        H  0.07184201  0.97925768  0.18769856     0.15900
F714        F  0.03937295  0.96640663  0.31039624    -0.23400
H715        H  0.04344981  0.99976559  0.32668172     0.17700
C716        C  0.03945148  0.03358946  0.27564355     0.25700
C717        C  0.03663061  0.05127459  0.28583227    -0.12000
C718        C  0.05064367  0.06219263  0.29903410    -0.26000
C719        C  0.06778227  0.05495186  0.30085440     0.36600
C720        C  0.07059476  0.03712622  0.29030915    -0.27600
F721        F  0.02556564  0.02347072  0.26317781    -0.19700
H722        H  0.02331943  0.05634655  0.28365954     0.15900
F723        F  0.08176587  0.06494172  0.31315164    -0.23500
H724        H  0.08374778  0.03164014  0.29238469     0.17800
C725        C  0.01542259  0.94204650  0.90760728    -0.27500
C726        C  0.02138571  0.92836611  0.93496138     0.06100
C727        C  0.01969179  0.91076508  0.92072508     0.25700
C728        C  0.01193887  0.90692304  0.88008022    -0.12000
C729        C  0.00592404  0.92054313  0.85264493    -0.25900
C730        C  0.00790509  0.93821861  0.86649480     0.36500
C731        C  0.02775774  0.93214137  0.98009598     0.06100
F732        F  0.02485717  0.89722180  0.94701489    -0.19700
H733        H  0.01063950  0.89325410  0.87002663     0.15900
F734        F  0.00200776  0.95174449  0.84110195    -0.23400
H735        H  0.01643015  0.95565759  0.91835143     0.17700
C736        C  0.04387447  0.92525917  0.99488330     0.25700
C737        C  0.04793305  0.92546421  0.03990154    -0.12000
C738        C  0.03598118  0.93254579  0.07086839    -0.26000
C739        C  0.02061389  0.94094819  0.05532112     0.36600
C740        C  0.01659145  0.94071392  0.01027397    -0.27600
F741        F  0.05530241  0.91762159  0.96598733    -0.19700
H742        H  0.06001589  0.91922047  0.05065501     0.15900
F743        F  0.00908448  0.94875527  0.08366420    -0.23500
H744        H  0.00420505  0.94627724  0.99931619     0.17800
C745        C  0.97227247  0.92361492  0.49594202    -0.27500
C746        C  0.98908996  0.92940119  0.48336040     0.06100
C747        C  0.00032161  0.93674056  0.51515657     0.25700
C748        C  0.99533576  0.93706049  0.55940896    -0.12000
C749        C  0.97906968  0.93002382  0.57291001    -0.25900
C750        C  0.96722574  0.92390303  0.54051160     0.36500
C751        C  0.99571863  0.92608570  0.43831439     0.06100
F752        F  0.01645789  0.94291965  0.50358111    -0.19700
H753        H  0.00457908  0.94221254  0.58338461     0.15900
F754        F  0.95131854  0.91715137  0.55198109    -0.23400
H755        H  0.96346712  0.91797091  0.47161631     0.17700
C756        C  0.01073904  0.91551913  0.43229613     0.25700
C757        C  0.01735792  0.91249293  0.39005586    -0.12000
C758        C  0.00916040  0.91992765  0.35289778    -0.26000
C759        C  0.99398831  0.93041342  0.35886320     0.36600
C760        C  0.98726398  0.93334897  0.40141268    -0.27600
F761        F  0.01888078  0.90789435  0.46734506    -0.19700
H762        H  0.02901918  0.90435658  0.38650963     0.15900
F763        F  0.98546963  0.93750715  0.32372578    -0.23500
H764        H  0.97559728  0.94141863  0.40566315     0.17800
C765        C  0.98705635  0.09949081  0.12997735    -0.27500
C766        C  0.99449976  0.10765588  0.09297225     0.06100
C767        C  0.00850148  0.11950561  0.09813687     0.25700
C768        C  0.01502251  0.12313689  0.14006117    -0.12000
C769        C  0.00771685  0.11495956  0.17747640    -0.25900
C770        C  0.99368357  0.10297831  0.17209157     0.36500
C771        C  0.98736930  0.10441304  0.04884003     0.06100
F772        F  0.01557827  0.12787094  0.06264136    -0.19700
H773        H  0.02582607  0.13236950  0.14316442     0.15900
F774        F  0.98612371  0.09491554  0.20736643    -0.23400
H775        H  0.97614960  0.09042319  0.12614828     0.17700
C776        C  0.99805677  0.09689504  0.01603473     0.25700
C777        C  0.99241037  0.09667056  0.97234828    -0.12000
C778        C  0.97609705  0.10414497  0.96070567    -0.26000
C779        C  0.96492543  0.11066190  0.99435012     0.36600
C780        C  0.97058229  0.11070900  0.03817804    -0.27600
F781        F  0.01427637  0.09051041  0.02605935    -0.19700
H782        H  0.00122880  0.09138656  0.94741021     0.15900
F783        F  0.94902034  0.11791358  0.98488400    -0.23500
H784        H  0.96228489  0.11657438  0.06345461     0.17800
C785        C  0.02160800  0.10378505  0.63213614    -0.27500
C786        C  0.01367452  0.11157572  0.59527969     0.06100
C787        C  0.99938885  0.12313732  0.60108585     0.25700
C788        C  0.99284898  0.12652913  0.64319486    -0.12000
C789        C  0.00043671  0.11846888  0.68032799    -0.25900
C790        C  0.01504880  0.10715638  0.67450408     0.36500
C791        C  0.01997671  0.10764838  0.55042628     0.06100
F792        F  0.99183880  0.13127605  0.56592361    -0.19700
H793        H  0.98169657  0.13535152  0.64657407     0.15900
F794        F  0.02306139  0.09940453  0.70952874    -0.23400
H795        H  0.03268062  0.09491226  0.62799389     0.17700
C796        C  0.03728631  0.11159915  0.53759904     0.25700
C797        C  0.04196285  0.11095806  0.49294542    -0.12000
C798        C  0.02941466  0.10633448  0.46079342    -0.26000
C799        C  0.01250484  0.10093399  0.47453133     0.36600
C800        C  0.00791211  0.10161577  0.51897149    -0.27600
F801        F  0.04925647  0.11725578  0.56771101    -0.19700
H802        H  0.05511730  0.11493202  0.48343365     0.15900
F803        F  0.00007358  0.09571322  0.44509284    -0.23500
H804        H  0.99462291  0.09817756  0.52870938     0.17800
C805        C  0.94330148  0.03455513  0.80504396    -0.27500
C806        C  0.95221401  0.02800009  0.76771362     0.06100
C807        C  0.96132494  0.03974859  0.74013566     0.25700
C808        C  0.96272211  0.05750883  0.75165762    -0.12000
C809        C  0.95490743  0.06393988  0.79062682    -0.25900
C810        C  0.94456785  0.05248180  0.81646722     0.36500
C811        C  0.95424377  0.00880909  0.76057434     0.06100
F812        F  0.96964199  0.03381126  0.70317059    -0.19700
H813        H  0.97049161  0.06615260  0.73086097     0.15900
F814        F  0.93690093  0.05825608  0.85444169    -0.23400
H815        H  0.93626964  0.02561934  0.82667245     0.17700
C816        C  0.97107357  0.00127063  0.76352401     0.25700
C817        C  0.97366283  0.98351885  0.75336367    -0.12000
C818        C  0.95953709  0.97278124  0.73994782    -0.26000
C819        C  0.94246644  0.98021769  0.73868744     0.36600
C820        C  0.93989213  0.99812808  0.74905617    -0.27600
F821        F  0.98510250  0.01120315  0.77590821    -0.19700
H822        H  0.98690173  0.97826108  0.75553080     0.15900
F823        F  0.92835561  0.97039908  0.72645291    -0.23500
H824        H  0.92681341  0.00377975  0.74688894     0.17800
C825        C  0.09728773  0.13693766  0.14301060    -0.27500
C826        C  0.11420982  0.14086836  0.15862569     0.06100
C827        C  0.11861586  0.13691088  0.20254392     0.25700
C828        C  0.10559758  0.13115858  0.23178373    -0.12000
C829        C  0.08809270  0.12966277  0.21746767    -0.25900
C830        C  0.08422224  0.13146113  0.17230101     0.36500
C831        C  0.12497431  0.15329699  0.13299134     0.06100
F832        F  0.13502033  0.14033349  0.21803959    -0.19700
H833        H  0.10885198  0.12963461  0.26642364     0.15900
F834        F  0.06752519  0.12934681  0.15723459    -0.23400
H835        H  0.09368840  0.13993402  0.10919940     0.17700
C836        C  0.12985603  0.14960019  0.08917582     0.25700
C837        C  0.13584563  0.16319326  0.06190713    -0.12000
C838        C  0.13647202  0.18064995  0.07775314    -0.26000
C839        C  0.13255486  0.18411183  0.12232760     0.36600
C840        C  0.12704687  0.17046120  0.14979769    -0.27600
F841        F  0.12774222  0.13314643  0.07211235    -0.19700
H842        H  0.13869747  0.16030673  0.02753596     0.15900
F843        F  0.13316993  0.20081092  0.13871387    -0.23500
H844        H  0.12302822  0.17357740  0.18331890     0.17800
C845        C  0.05007900  0.15632692  0.88580974    -0.27500
C846        C  0.05123105  0.17442834  0.87681238     0.06100
C847        C  0.03742879  0.18281963  0.85433487     0.25700
C848        C  0.02279746  0.17311318  0.84058548    -0.12000
C849        C  0.02160514  0.15488718  0.84920712    -0.25900
C850        C  0.03541713  0.14660785  0.87244529     0.36500
C851        C  0.06697423  0.18433817  0.89083778     0.06100
F852        F  0.03832918  0.20028625  0.84463970    -0.19700
H853        H  0.01243906  0.17990470  0.82280810     0.15900
F854        F  0.03495904  0.12910344  0.88189084    -0.23400
H855        H  0.06059720  0.14970590  0.90343609     0.17700
C856        C  0.06548425  0.19875042  0.91982580     0.25700
C857        C  0.08059299  0.20718656  0.93531429    -0.12000
C858        C  0.09749380  0.20136878  0.92243513    -0.26000
C859        C  0.09886183  0.18727551  0.89207456     0.36600
C860        C  0.08370978  0.17883533  0.87670989    -0.27600
F861        F  0.04947777  0.20407904  0.93493823    -0.19700
H862        H  0.07900622  0.21792276  0.95877173     0.15900
F863        F  0.11478082  0.18127601  0.87809551    -0.23500
H864        H  0.08503181  0.16777121  0.85410257     0.17800
C865        C  0.23405122  0.22296158  0.05031262    -0.27500
C866        C  0.24441813  0.21130467  0.02539397     0.06100
C867        C  0.23644075  0.20059008  0.99319972     0.25700
C868        C  0.21839867  0.20247453  0.98422456    -0.12000
C869        C  0.20830570  0.21520288  0.00696736    -0.25900
C870        C  0.21619333  0.22493115  0.04134271     0.36500
C871        C  0.26370188  0.21280726  0.02910942     0.06100
F872        F  0.24627669  0.18923663  0.96861351    -0.19700
H873        H  0.21259640  0.19480237  0.95774530     0.15900
F874        F  0.20678622  0.23687445  0.06528258    -0.23400
H875        H  0.24005046  0.23125673  0.07533072     0.17700
C876        C  0.27184706  0.22809052  0.01303021     0.25700
C877        C  0.28938657  0.23156249  0.02291597    -0.12000
C878        C  0.29926031  0.21988567  0.04917489    -0.26000
C879        C  0.29133925  0.20400217  0.06325215     0.36600
C880        C  0.27360499  0.20056663  0.05336512    -0.27600
F881        F  0.26253998  0.24006793  0.98922950    -0.19700
H882        H  0.29510242  0.24371555  0.01076646     0.15900
F883        F  0.30038606  0.19222207  0.08819854    -0.23500
H884        H  0.26740547  0.18877069  0.06619661     0.17800
C885        C  0.08706746  0.23312285  0.44605478    -0.27500
C886        C  0.09603485  0.21788191  0.43212238     0.06100
C887        C  0.11448239  0.21750465  0.43347101     0.25700
C888        C  0.12380865  0.23220980  0.44831605    -0.12000
C889        C  0.11495343  0.24761141  0.46226863    -0.25900
C890        C  0.09637613  0.24784632  0.46136350     0.36500
C891        C  0.08621709  0.20275401  0.41380060     0.06100
F892        F  0.12350866  0.20311378  0.41896854    -0.19700
H893        H  0.13805265  0.23152734  0.44848198     0.15900
F894        F  0.08715789  0.26227885  0.47474556    -0.23400
H895        H  0.07281666  0.23359965  0.44498199     0.17700
C896        C  0.08754927  0.18590801  0.43278985     0.25700
C897        C  0.07920659  0.17146330  0.41302062    -0.12000
C898        C  0.06944543  0.17356743  0.37389446    -0.26000
C899        C  0.06792642  0.19062513  0.35546249     0.36600
C900        C  0.07616940  0.20502401  0.37549518    -0.27600
F901        F  0.09695429  0.18344993  0.47038683    -0.19700
H902        H  0.08056428  0.15858599  0.42812387     0.15900
F903        F  0.05905115  0.19340001  0.31718810    -0.23500
H904        H  0.07517709  0.21792010  0.36026945     0.17800
C905        C  0.15438526  0.26931258  0.70074803    -0.27500
C906        C  0.16506041  0.25429867  0.70457215     0.06100
C907        C  0.17198582  0.24625317  0.66648386     0.25700
C908        C  0.16845463  0.25346092  0.62493886    -0.12000
C909        C  0.15764910  0.26846384  0.62112051    -0.25900
C910        C  0.15059532  0.27632210  0.65943179     0.36500
C911        C  0.16838757  0.24716642  0.74881031     0.06100
F912        F  0.18225320  0.23162554  0.66959369    -0.19700
H913        H  0.17389474  0.24716283  0.59571832     0.15900
F914        F  0.14030838  0.29097231  0.65706148    -0.23400
H915        H  0.14883969  0.27552836  0.72997893     0.17700
C916        C  0.17612557  0.25792185  0.78109870     0.25700
C917        C  0.17600541  0.25271884  0.82515869    -0.12000
C918        C  0.16802597  0.23676329  0.83781774    -0.26000
C919        C  0.16138699  0.22540548  0.80478690     0.36600
C920        C  0.16161417  0.23064203  0.76054928    -0.27600
F921        F  0.18303101  0.27385542  0.77018137    -0.19700
H922        H  0.18148247  0.26162186  0.84960875     0.15900
F923        F  0.15367859  0.20980397  0.81526222    -0.23500
H924        H  0.15552090  0.22228325  0.73580271     0.17800
C925        C  0.17302644  0.28039088  0.16952910    -0.27500
C926        C  0.16324157  0.27421371  0.20553353     0.06100
C927        C  0.14983525  0.26180880  0.19889976     0.25700
C928        C  0.14633213  0.25552556  0.15664397    -0.12000
C929        C  0.15616407  0.26146257  0.12016932    -0.25900
C930        C  0.16963985  0.27399160  0.12701027     0.36500
C931        C  0.16668089  0.28066078  0.25035489     0.06100
F932        F  0.13996804  0.25595688  0.23337835    -0.19700
H933        H  0.13589912  0.24592244  0.15263362     0.15900
F934        F  0.17948796  0.28013264  0.09286900    -0.23400
H935        H  0.18337028  0.29002459  0.17448561     0.17700
C936        C  0.17215258  0.26877796  0.28293773     0.25700
C937        C  0.17182872  0.27379825  0.32714638    -0.12000
C938        C  0.16596509  0.29073053  0.33956770    -0.26000
C939        C  0.16180096  0.30308881  0.30641921     0.36600
C940        C  0.16215910  0.29799770  0.26199753    -0.27600
F941        F  0.17694396  0.25203491  0.27206009    -0.19700
H942        H  0.17553468  0.26413321  0.35179464     0.15900
F943        F  0.15634833  0.31966600  0.31683907    -0.23500
H944        H  0.15790337  0.30724554  0.23689941     0.17800
C945        C  0.33143301  0.27663065  0.76810120    -0.27500
C946        C  0.33666817  0.28832243  0.80148888     0.06100
C947        C  0.34091866  0.30581719  0.79049402     0.25700
C948        C  0.34121237  0.31104368  0.74612659    -0.12000
C949        C  0.33727506  0.29889782  0.71224901    -0.25900
C950        C  0.33172331  0.28175481  0.72397412     0.36500
C951        C  0.34030098  0.28119348  0.84588651     0.06100
F952        F  0.34613405  0.31740983  0.82214227    -0.19700
H953        H  0.34537911  0.32433318  0.73822081     0.15900
F954        F  0.32772523  0.26943514  0.69290237    -0.23400
H955        H  0.32804001  0.26311870  0.77610699     0.17700
C956        C  0.33275356  0.28841514  0.88431870     0.25700
C957        C  0.33669911  0.28114669  0.92566225    -0.12000
C958        C  0.34832905  0.26670470  0.92916722    -0.26000
C959        C  0.35575275  0.25952386  0.89036109     0.36600
C960        C  0.35173810  0.26672343  0.84937480    -0.27600
F961        F  0.32142118  0.30225109  0.88182321    -0.19700
H962        H  0.33081193  0.28695348  0.95494489     0.15900
F963        F  0.36685368  0.24546753  0.89169826    -0.23500
H964        H  0.35775106  0.26104925  0.82005833     0.17800
C965        C  0.35099235  0.23892555  0.29071190    -0.27500
C966        C  0.34462541  0.25565721  0.30273920     0.06100
C967        C  0.33640551  0.26623087  0.27084089     0.25700
C968        C  0.33555256  0.26059840  0.22703518    -0.12000
C969        C  0.34292955  0.24433377  0.21405785    -0.25900
C970        C  0.35017860  0.23323631  0.24674466     0.36500
C971        C  0.34798425  0.26275283  0.34736165     0.06100
F972        F  0.32962542  0.28225124  0.28188793    -0.19700
H973        H  0.32963816  0.26934263  0.20295938     0.15900
F974        F  0.35730027  0.21732426  0.23612610    -0.23400
H975        H  0.35739109  0.23061937  0.31499725     0.17700
C976        C  0.34270856  0.25358085  0.38537540     0.25700
C977        C  0.34609880  0.26065316  0.42719138    -0.12000
C978        C  0.35496581  0.27687100  0.43174723    -0.26000
C979        C  0.36039049  0.28590435  0.39346071     0.36600
C980        C  0.35688494  0.27886987  0.35179289    -0.27600
F981        F  0.33399886  0.23799808  0.38203962    -0.19700
H982        H  0.34181771  0.25336882  0.45605710     0.15900
F983        F  0.36884688  0.30164891  0.39604959    -0.23500
H984        H  0.36124804  0.28599485  0.32273393     0.17800
C985        C  0.23395092  0.33395933  0.50166726    -0.27500
C986        C  0.24533098  0.31967504  0.50904920     0.06100
C987        C  0.23852118  0.30249553  0.51042351     0.25700
C988        C  0.22067577  0.29958379  0.50363481    -0.12000
C989        C  0.20913109  0.31371709  0.49519173    -0.25900
C990        C  0.21594942  0.33105038  0.49447647     0.36500
C991        C  0.26433335  0.32231440  0.51598106     0.06100
F992        F  0.24916392  0.28848142  0.51887465    -0.19700
H993        H  0.21595467  0.28610928  0.50483865     0.15900
F994        F  0.20537711  0.34513233  0.48636380    -0.23400
H995        H  0.23906719  0.34729432  0.50081183     0.17700
C996        C  0.27646300  0.31385896  0.48793520     0.25700
C997        C  0.29412558  0.31276749  0.49988025    -0.12000
C998        C  0.30000329  0.32018591  0.53979527    -0.26000
C999        C  0.28812416  0.32990827  0.56612336     0.36600
C1000       C  0.27034742  0.33092318  0.55418149    -0.27600
F1001       F  0.27100011  0.30577403  0.45026747    -0.19700
H1002       H  0.30310714  0.30544921  0.47877939     0.15900
F1003       F  0.29332595  0.33707579  0.60513074    -0.23500
H1004       H  0.26108526  0.33738942  0.57622009     0.17800
C1005       C  0.77543911  0.73124327  0.51312067    -0.27500
C1006       C  0.76707609  0.71512383  0.52119309     0.06100
C1007       C  0.77716022  0.70068753  0.53572210     0.25700
C1008       C  0.79524527  0.70279865  0.54432270    -0.12000
C1009       C  0.80347957  0.71929768  0.53822664    -0.25900
C1010       C  0.79330362  0.73340266  0.52142020     0.36500
C1011       C  0.74767223  0.71440614  0.51671493     0.06100
F1012       F  0.76940467  0.68486039  0.54342164    -0.19700
H1013       H  0.80267228  0.69167341  0.55684258     0.15900
F1014       F  0.80037934  0.74956987  0.51384218    -0.23400
H1015       H  0.76792513  0.74243885  0.50121732     0.17700
C1016       C  0.73734239  0.72660294  0.54039841     0.25700
C1017       C  0.71963429  0.72890471  0.53012290    -0.12000
C1018       C  0.71172411  0.71899914  0.49629378    -0.26000
C1019       C  0.72166198  0.70575193  0.47485969     0.36600
C1020       C  0.73959680  0.70355945  0.48493754    -0.27600
F1021       F  0.74464346  0.73691313  0.57222999    -0.19700
H1022       H  0.71219801  0.73889752  0.54785865     0.15900
F1023       F  0.71442914  0.69582339  0.44221104    -0.23500
H1024       H  0.74737901  0.69412967  0.46627063     0.17800
C1025       C  0.91562046  0.84817102  0.62570523    -0.27500
C1026       C  0.92418601  0.83172147  0.62646646     0.06100
C1027       C  0.94156331  0.83077978  0.64224957     0.25700
C1028       C  0.94985302  0.84587548  0.65882962    -0.12000
C1029       C  0.94109146  0.86223536  0.65944250    -0.25900
C1030       C  0.92395703  0.86331306  0.64189726     0.36500
C1031       C  0.91467853  0.81550215  0.61280064     0.06100
F1032       F  0.95022753  0.81510324  0.64368108    -0.19700
H1033       H  0.96304198  0.84469551  0.67205487     0.15900
F1034       F  0.91486514  0.87876338  0.64259066    -0.23400
H1035       H  0.90230236  0.84922594  0.61325540     0.17700
C1036       C  0.89810172  0.81148553  0.63093436     0.25700
C1037       C  0.88935169  0.79602516  0.61862610    -0.12000
C1038       C  0.89690654  0.78418437  0.58802549    -0.26000
C1039       C  0.91354945  0.78823611  0.56992396     0.36600
C1040       C  0.92228286  0.80373977  0.58226622    -0.27600
F1041       F  0.89051664  0.82231295  0.66137685    -0.19700
H1042       H  0.87660976  0.79332366  0.63323978     0.15900
F1043       F  0.92125986  0.77749448  0.53951355    -0.23500
H1044       H  0.93495503  0.80667333  0.56755093     0.17800
C1045       C  0.65359704  0.77400454  0.19014857    -0.27500
C1046       C  0.66476000  0.75942709  0.19536821     0.06100
C1047       C  0.67185216  0.75102978  0.15794150     0.25700
C1048       C  0.66805069  0.75747771  0.11577813    -0.12000
C1049       C  0.65694085  0.77221402  0.11046213    -0.25900
C1050       C  0.64965972  0.78037176  0.14824261     0.36500
C1051       C  0.66842281  0.75303461  0.24026752     0.06100
F1052       F  0.68269916  0.73687793  0.16225712    -0.19700
H1053       H  0.67380891  0.75093456  0.08729514     0.15900
F1054       F  0.63902316  0.79473505  0.14500755    -0.23400
H1055       H  0.64783317  0.78045167  0.21879029     0.17700
C1056       C  0.67483342  0.76471278  0.27247023     0.25700
C1057       C  0.67545592  0.75958680  0.31659037    -0.12000
C1058       C  0.66959216  0.74276006  0.32946860    -0.26000
C1059       C  0.66418262  0.73068408  0.29658013     0.36600
C1060       C  0.66365212  0.73585195  0.25232383    -0.27600
F1061       F  0.67989710  0.78131084  0.26138237    -0.19700
H1062       H  0.67988817  0.76912041  0.34089118     0.15900
F1063       F  0.65851962  0.71423484  0.30715797    -0.23500
H1064       H  0.65860016  0.72674274  0.22775290     0.17800
C1065       C  0.68108723  0.77754626  0.77014088    -0.27500
C1066       C  0.67209544  0.78826088  0.74000022     0.06100
C1067       C  0.66464476  0.80423354  0.75445612     0.25700
C1068       C  0.66522236  0.80885062  0.79913371    -0.12000
C1069       C  0.67300262  0.79746505  0.83016324    -0.25900
C1070       C  0.68152249  0.78202185  0.81494102     0.36500
C1071       C  0.66838547  0.78148497  0.69533973     0.06100
F1072       F  0.65611596  0.81494935  0.72563070    -0.19700
H1073       H  0.65865926  0.82084824  0.80970246     0.15900
F1074       F  0.68959102  0.77081207  0.84341975    -0.23400
H1075       H  0.68685583  0.76516556  0.75938484     0.17700
C1076       C  0.68201350  0.77719182  0.66576772     0.25700
C1077       C  0.67806192  0.76970160  0.62466720    -0.12000
C1078       C  0.66051517  0.76605201  0.61310311    -0.26000
C1079       C  0.64691836  0.77043551  0.64284379     0.36600
C1080       C  0.65086959  0.77817299  0.68346326    -0.27600
F1081       F  0.69906223  0.78030762  0.67659977    -0.19700
H1082       H  0.68871948  0.76648354  0.60217187     0.15900
F1083       F  0.62978330  0.76756191  0.63238766    -0.23500
H1084       H  0.64024635  0.78128080  0.70616720     0.17800
C1085       C  0.85975010  0.79892223  0.28041050    -0.27500
C1086       C  0.85038297  0.78409428  0.29492293     0.06100
C1087       C  0.83983900  0.77471006  0.26505179     0.25700
C1088       C  0.83956336  0.77948805  0.22053471    -0.12000
C1089       C  0.84967327  0.79378875  0.20526101    -0.25900
C1090       C  0.85933455  0.80387204  0.23599850     0.36500
C1091       C  0.85331142  0.77725957  0.33976566     0.06100
F1092       F  0.83073570  0.76025202  0.27837615    -0.19700
H1093       H  0.83186348  0.77162337  0.19774525     0.15900
F1094       F  0.86923323  0.81783178  0.22291566    -0.23400
H1095       H  0.86791618  0.80626389  0.30328137     0.17700
C1096       C  0.87007269  0.77110897  0.35156846     0.25700
C1097       C  0.87286906  0.76386545  0.39323033    -0.12000
C1098       C  0.85903778  0.76276774  0.42405215    -0.26000
C1099       C  0.84222010  0.76906581  0.41222314     0.36600
C1100       C  0.83939569  0.77614165  0.37014908    -0.27600
F1101       F  0.88363728  0.77168988  0.32227233    -0.19700
H1102       H  0.88593077  0.75916404  0.40140199     0.15900
F1103       F  0.82843592  0.76800612  0.44074759    -0.23500
H1104       H  0.82637652  0.78073103  0.36119718     0.17800
C1105       C  0.86748098  0.76078868  0.84769306    -0.27500
C1106       C  0.85088915  0.75371765  0.83843039     0.06100
C1107       C  0.83764600  0.75409448  0.87082489     0.25700
C1108       C  0.84117135  0.76128581  0.91250379    -0.12000
C1109       C  0.85782697  0.76845649  0.92182227    -0.25900
C1110       C  0.87095567  0.76820634  0.88881903     0.36500
C1111       C  0.84776983  0.74632384  0.79427902     0.06100
F1112       F  0.82146619  0.74733953  0.86226651    -0.19700
H1113       H  0.83084604  0.76143468  0.93727597     0.15900
F1114       F  0.88728534  0.77482370  0.89637630    -0.23400
H1115       H  0.87774734  0.76067528  0.82273366     0.17700
C1116       C  0.83641067  0.75487512  0.76478380     0.25700
C1117       C  0.83619355  0.74987872  0.72036693    -0.12000
C1118       C  0.84721694  0.73624364  0.70499542    -0.26000
C1119       C  0.85781510  0.72700999  0.73528849     0.36600
C1120       C  0.85812541  0.73214167  0.77956186    -0.27600
F1121       F  0.82654369  0.76886426  0.77823051    -0.19700
H1122       H  0.82791221  0.75713349  0.69762550     0.15900
F1123       F  0.86889406  0.71398612  0.72165915    -0.23500
H1124       H  0.86706568  0.72558374  0.80207367     0.17800
C1125       C  0.73605746  0.80776253  0.05557754    -0.27500
C1126       C  0.74779273  0.81740633  0.02937087     0.06100
C1127       C  0.74155032  0.82677603  0.99264858     0.25700
C1128       C  0.72377049  0.82584907  0.98111626    -0.12000
C1129       C  0.71220438  0.81524715  0.00562123    -0.25900
C1130       C  0.71834838  0.80662679  0.04379877     0.36500
C1131       C  0.76677595  0.81532882  0.03627724     0.06100
F1132       F  0.75286328  0.83593409  0.96658966    -0.19700
H1133       H  0.71928219  0.83249836  0.95154859     0.15900
F1134       F  0.70733720  0.79667680  0.06888321    -0.23400
H1135       H  0.74080539  0.80040657  0.08381935     0.17700
C1136       C  0.77602393  0.82615540  0.06578130     0.25700
C1137       C  0.79413257  0.82369063  0.07161145    -0.12000
C1138       C  0.80308604  0.81021698  0.04854689    -0.26000
C1139       C  0.79359801  0.79934571  0.01917254     0.36600
C1140       C  0.77562468  0.80199194  0.01308426    -0.27600
F1141       F  0.76752548  0.83894892  0.08903466    -0.19700
H1142       H  0.80107078  0.83206309  0.09481138     0.15900
F1143       F  0.80165337  0.78623077  0.99599327    -0.23500
H1144       H  0.76851993  0.79353970  0.99035271     0.17800
C1145       C  0.89305693  0.88971967  0.82939443    -0.27500
C1146       C  0.89676937  0.88684301  0.87420637     0.06100
C1147       C  0.91326230  0.89191270  0.89104831     0.25700
C1148       C  0.92628378  0.89836469  0.86263733    -0.12000
C1149       C  0.92295715  0.90014924  0.81723999    -0.25900
C1150       C  0.90597127  0.89645862  0.80110016     0.36500
C1151       C  0.88532406  0.87511283  0.90059011     0.06100
F1152       F  0.91739086  0.88893861  0.93404362    -0.19700
H1153       H  0.93927842  0.90105620  0.87567730     0.15900
F1154       F  0.90239662  0.89756899  0.75722944    -0.23400
H1155       H  0.88052764  0.88563073  0.81577440     0.17700
C1156       C  0.87919509  0.88000785  0.94279819     0.25700
C1157       C  0.87252525  0.86715281  0.97155499    -0.12000
C1158       C  0.87223737  0.84932699  0.95861349    -0.26000
C1159       C  0.87677152  0.84480222  0.91495168     0.36600
C1160       C  0.88313429  0.85763988  0.88615371    -0.27600
F1161       F  0.88076053  0.89693022  0.95711407    -0.19700
H1162       H  0.86908387  0.87087880  0.00508858     0.15900
F1163       F  0.87627863  0.82772368  0.90120250    -0.23500
H1164       H  0.88776308  0.85361963  0.85372981     0.17800
C1165       C  0.94611436  0.83553602  0.12081028    -0.27500
C1166       C  0.94369544  0.85119623  0.14477411     0.06100
C1167       C  0.92656634  0.85738818  0.15307107     0.25700
C1168       C  0.91206958  0.84814600  0.13681062    -0.12000
C1169       C  0.91442531  0.83263865  0.11177246    -0.25900
C1170       C  0.93168323  0.82631399  0.10431133     0.36500
C1171       C  0.95914775  0.86135535  0.15937341     0.06100
F1172       F  0.92387499  0.87238165  0.17686635    -0.19700
H1173       H  0.89901716  0.85334639  0.14316077     0.15900
F1174       F  0.93477230  0.81151351  0.08005254    -0.23400
H1175       H  0.95926008  0.83070377  0.11379200     0.17700
C1176       C  0.97235168  0.85339806  0.18487739     0.25700
C1177       C  0.98701729  0.86314680  0.19799579    -0.12000
C1178       C  0.98880215  0.88098529  0.18578084    -0.26000
C1179       C  0.97561047  0.88880407  0.15953738     0.36600
C1180       C  0.96093684  0.87903553  0.14663916    -0.27600
F1181       F  0.97085934  0.83632346  0.19792672    -0.19700
H1182       H  0.99687044  0.85673757  0.21821084     0.15900
F1183       F  0.97680387  0.90585262  0.14615597    -0.23500
H1184       H  0.95099768  0.88523944  0.12626255     0.17800
C1185       C  0.57331499  0.83684494  0.88988469    -0.27500
C1186       C  0.57531690  0.85387464  0.87261288     0.06100
C1187       C  0.59216530  0.86151749  0.87149489     0.25700
C1188       C  0.60661524  0.85246891  0.88903047    -0.12000
C1189       C  0.60448737  0.83573604  0.90840816    -0.25900
C1190       C  0.58767931  0.82782767  0.90766871     0.36500
C1191       C  0.55955725  0.86394894  0.85882579     0.06100
F1192       F  0.59458204  0.87782998  0.85403483    -0.19700
H1193       H  0.61935707  0.85889025  0.88895145     0.15900
F1194       F  0.58494250  0.81156490  0.92513413    -0.23400
H1195       H  0.56041168  0.83076183  0.89115012     0.17700
C1196       C  0.54761328  0.85689563  0.82812530     0.25700
C1197       C  0.53220189  0.86609370  0.81759949    -0.12000
C1198       C  0.52840014  0.88249088  0.83747110    -0.26000
C1199       C  0.54043938  0.88950025  0.86830555     0.36600
C1200       C  0.55583913  0.88029404  0.87868302    -0.27600
F1201       F  0.55098943  0.84122501  0.80789178    -0.19700
H1202       H  0.52332235  0.86044249  0.79342900     0.15900
F1203       F  0.53721255  0.90505790  0.88923468    -0.23500
H1204       H  0.56473056  0.88576757  0.90310549     0.17800
C1205       C  0.43562641  0.20562601  0.63737436    -0.27500
C1206       C  0.41719962  0.20531327  0.63408266     0.06100
C1207       C  0.40815587  0.18958972  0.64336871     0.25700
C1208       C  0.41734612  0.17468066  0.65767159    -0.12000
C1209       C  0.43569319  0.17522434  0.66340609    -0.25900
C1210       C  0.44483752  0.19076747  0.65216068     0.36500
C1211       C  0.40746590  0.22145980  0.62149113     0.06100
F1212       F  0.39039873  0.18870453  0.63893592    -0.19700
H1213       H  0.40997854  0.16291898  0.66605604     0.15900
F1214       F  0.46261951  0.19170871  0.65603548    -0.23400
H1215       H  0.44282731  0.21757952  0.62978767     0.17700
C1216       C  0.39409432  0.22833282  0.64885792     0.25700
C1217       C  0.38477492  0.24343711  0.63622334    -0.12000
C1218       C  0.38877092  0.25205824  0.59637144    -0.26000
C1219       C  0.40230622  0.24520885  0.56924612     0.36600
C1220       C  0.41156205  0.23009739  0.58188631    -0.27600
F1221       F  0.39032964  0.22066076  0.68827290    -0.19700
H1222       H  0.37458229  0.24852492  0.65791803     0.15900
F1223       F  0.40632514  0.25280590  0.52989464    -0.23500
H1224       H  0.42178110  0.22494457  0.56035832     0.17800
C1225       C  0.37678606  0.17633918  0.89742308    -0.27500
C1226       C  0.38223835  0.15984270  0.91342540     0.06100
C1227       C  0.37996073  0.15591346  0.95848204     0.25700
C1228       C  0.37364226  0.16886741  0.98755301    -0.12000
C1229       C  0.36999032  0.18594964  0.97210240    -0.25900
C1230       C  0.37087699  0.18938702  0.92656073     0.36500
C1231       C  0.39388756  0.14896013  0.88526335     0.06100
F1232       F  0.38512526  0.14004761  0.97477051    -0.19700
H1233       H  0.37305170  0.16600603  0.02260655     0.15900
F1234       F  0.36706663  0.20569087  0.91065586    -0.23400
H1235       H  0.37861873  0.17966767  0.86289753     0.17700
C1236       C  0.38875744  0.14358623  0.84265940     0.25700
C1237       C  0.40142518  0.13758523  0.81235240    -0.12000
C1238       C  0.41930541  0.13733149  0.82406362    -0.26000
C1239       C  0.42418591  0.14154749  0.86754744     0.36600
C1240       C  0.41154146  0.14712958  0.89796418    -0.27600
F1241       F  0.37173535  0.14517292  0.82967085    -0.19700
H1242       H  0.39746166  0.13443986  0.77887122     0.15900
F1243       F  0.44134580  0.14121751  0.87986939    -0.23500
H1244       H  0.41578766  0.15141926  0.93043081     0.17800
C1245       C  0.44491819  0.00258992  0.81517640    -0.27500
C1246       C  0.45462532  0.01087746  0.78163277     0.06100
C1247       C  0.46649522  0.00092161  0.75617709     0.25700
C1248       C  0.46914100  0.98305742  0.76526427    -0.12000
C1249       C  0.45986040  0.97472124  0.79963888    -0.25900
C1250       C  0.44736028  0.98456140  0.82393076     0.36500
C1251       C  0.45379839  0.03017279  0.77546926     0.06100
F1252       F  0.47602810  0.00868945  0.72357596    -0.19700
H1253       H  0.47872056  0.97578370  0.74582480     0.15900
F1254       F  0.43823937  0.97704749  0.85760569    -0.23400
H1255       H  0.43581581  0.01018924  0.83525387     0.17700
C1256       C  0.44343214  0.03764353  0.74200822     0.25700
C1257       C  0.44505184  0.05561247  0.73182633    -0.12000
C1258       C  0.45725755  0.06626373  0.75441007    -0.26000
C1259       C  0.46695818  0.05884578  0.78949162     0.36600
C1260       C  0.46519836  0.04096223  0.79979111    -0.27600
F1261       F  0.43233727  0.02739499  0.71801191    -0.19700
H1262       H  0.43739948  0.06097950  0.70482652     0.15900
F1263       F  0.47842476  0.06876862  0.81330389    -0.23500
H1264       H  0.47328195  0.03533531  0.82566648     0.17800
C1265       C  0.57446204  0.83511476  0.40802640    -0.27500
C1266       C  0.59240962  0.83604927  0.41862526     0.06100
C1267       C  0.60113555  0.85235198  0.41529850     0.25700
C1268       C  0.59222529  0.86723568  0.39967032    -0.12000
C1269       C  0.57449643  0.86610929  0.38670687    -0.25900
C1270       C  0.56554370  0.84996094  0.39224540     0.36500
C1271       C  0.60215133  0.81982587  0.43083611     0.06100
F1272       F  0.61837334  0.85381325  0.42647952    -0.19700
H1273       H  0.59945587  0.87944457  0.39586754     0.15900
F1274       F  0.54829101  0.84833400  0.38133319    -0.23400
H1275       H  0.56749511  0.82269270  0.41036177     0.17700
C1276       C  0.59594268  0.80860634  0.46432571     0.25700
C1277       C  0.60529688  0.79331560  0.47523311    -0.12000
C1278       C  0.62102145  0.78892387  0.45301552    -0.26000
C1279       C  0.62700930  0.80002135  0.41884971     0.36600
C1280       C  0.61763554  0.81529026  0.40799355    -0.27600
F1281       F  0.58109742  0.81267297  0.48731376    -0.19700
H1282       H  0.60038461  0.78508641  0.50172986     0.15900
F1283       F  0.64176633  0.79604027  0.39541376    -0.23500
H1284       H  0.62239595  0.82353107  0.38133766     0.17800
C1285       C  0.63417129  0.88329629  0.09230316    -0.27500
C1286       C  0.62946591  0.87806599  0.13524817     0.06100
C1287       C  0.63210323  0.86042951  0.14799789     0.25700
C1288       C  0.63797575  0.84798380  0.11722499    -0.12000
C1289       C  0.64160155  0.85293819  0.07349314    -0.25900
C1290       C  0.64047182  0.87086268  0.06168588     0.36500
C1291       C  0.61865104  0.88970068  0.16374543     0.06100
F1292       F  0.62732657  0.85488136  0.18895181    -0.19700
H1293       H  0.63878497  0.83423932  0.12693452     0.15900
F1294       F  0.64381801  0.87605092  0.01957113    -0.23400
H1295       H  0.63203097  0.89680157  0.08184217     0.17700
C1296       C  0.62357059  0.89336979  0.20761649     0.25700
C1297       C  0.61113099  0.90002458  0.23765053    -0.12000
C1298       C  0.59365437  0.90275511  0.22428976    -0.26000
C1299       C  0.58917231  0.90049114  0.17962159     0.36600
C1300       C  0.60165383  0.89417504  0.14951828    -0.27600
F1301       F  0.64000796  0.88935962  0.22200658    -0.19700
H1302       H  0.61477463  0.90169219  0.27201568     0.15900
F1303       F  0.57243411  0.90340249  0.16573440    -0.23500
H1304       H  0.59761399  0.89137590  0.11589087     0.17800
C1305       C  0.50801948  0.93388404  0.01597119    -0.27500
C1306       C  0.49638356  0.92833231  0.04905133     0.06100
C1307       C  0.47874861  0.92478902  0.03825622     0.25700
C1308       C  0.47312476  0.92594274  0.99447197    -0.12000
C1309       C  0.48500576  0.93056038  0.96079014    -0.25900
C1310       C  0.50250720  0.93493368  0.97223815     0.36500
C1311       C  0.50298140  0.92536491  0.09417431     0.06100
F1312       F  0.46720413  0.91923428  0.06957399    -0.19700
H1313       H  0.45964194  0.92251923  0.98677773     0.15900
F1314       F  0.51460771  0.93954993  0.94123122    -0.23400
H1315       H  0.52156347  0.93700177  0.02388478     0.17700
C1316       C  0.51810299  0.91501849  0.10118791     0.25700
C1317       C  0.52390051  0.91173174  0.14400157    -0.12000
C1318       C  0.51477446  0.91870901  0.18054355    -0.26000
C1319       C  0.49971760  0.92919878  0.17342241     0.36600
C1320       C  0.49394247  0.93249725  0.13052942    -0.27600
F1321       F  0.52702011  0.90767918  0.06674924    -0.19700
H1322       H  0.53556698  0.90371026  0.14847593     0.15900
F1323       F  0.49035858  0.93603230  0.20774341    -0.23500
H1324       H  0.48237737  0.94063096  0.12567231     0.17800
C1325       C  0.54081645  0.92948305  0.53920212    -0.27500
C1326       C  0.52345799  0.93448173  0.54919738     0.06100
C1327       C  0.51283289  0.94172127  0.51604078     0.25700
C1328       C  0.51890653  0.94231465  0.47261651    -0.12000
C1329       C  0.53568480  0.93567915  0.46151344    -0.25900
C1330       C  0.54696430  0.93008411  0.49567013     0.36500
C1331       C  0.51608876  0.93066428  0.59318926     0.06100
F1332       F  0.49631997  0.94756365  0.52537040    -0.19700
H1333       H  0.51006141  0.94715854  0.44739361     0.15900
F1334       F  0.56350383  0.92419430  0.48692983    -0.23400
H1335       H  0.54926014  0.92413856  0.56467071     0.17700
C1336       C  0.50097810  0.92007552  0.59743383     0.25700
C1337       C  0.49464721  0.91557517  0.63923745    -0.12000
C1338       C  0.50321218  0.92164970  0.67736453    -0.26000
C1339       C  0.51833334  0.93232057  0.67295363     0.36600
C1340       C  0.52471918  0.93667092  0.63115142    -0.27600
F1341       F  0.49266321  0.91363041  0.56114419    -0.19700
H1342       H  0.48299680  0.90740704  0.64177281     0.15900
F1343       F  0.52723277  0.93822959  0.70894490    -0.23500
H1344       H  0.53645875  0.94470409  0.62835042     0.17800
C1345       C  0.44332661  0.20534696  0.12602090    -0.27500
C1346       C  0.44157496  0.19271952  0.15954076     0.06100
C1347       C  0.42482374  0.18941409  0.17749531     0.25700
C1348       C  0.40995609  0.19773950  0.16010717    -0.12000
C1349       C  0.41148807  0.20961620  0.12464439    -0.25900
C1350       C  0.42847876  0.21374953  0.10861155     0.36500
C1351       C  0.45704797  0.18225133  0.17361455     0.06100
F1352       F  0.42281400  0.17789949  0.21144478    -0.19700
H1353       H  0.39717100  0.19450922  0.17375126     0.15900
F1354       F  0.43079028  0.22524102  0.07472442    -0.23400
H1355       H  0.45615118  0.20814069  0.11196601     0.17700
C1356       C  0.45658832  0.16372122  0.17175304     0.25700
C1357       C  0.47118548  0.15381219  0.18473043    -0.12000
C1358       C  0.48659799  0.16212814  0.19981953    -0.26000
C1359       C  0.48716472  0.18075517  0.20077306     0.36600
C1360       C  0.47251623  0.19066847  0.18759569    -0.27600
F1361       F  0.44212118  0.15517999  0.15643984    -0.19700
H1362       H  0.47032818  0.13955526  0.18321005     0.15900
F1363       F  0.50185554  0.18944344  0.21406180    -0.23500
H1364       H  0.47317727  0.20494620  0.18869156     0.17800
C1365       C  0.50967390  0.10592963  0.02040107    -0.27500
C1366       C  0.52139201  0.11340391  0.98992091     0.06100
C1367       C  0.53821810  0.11857848  0.00397594     0.25700
C1368       C  0.54276113  0.11725591  0.04864958    -0.12000
C1369       C  0.53054922  0.11085784  0.07983471    -0.25900
C1370       C  0.51413767  0.10460984  0.06487206     0.36500
C1371       C  0.51499957  0.11743846  0.94508669     0.06100
F1372       F  0.54974892  0.12604788  0.97524512    -0.19700
H1373       H  0.55548703  0.12213619  0.05911706     0.15900
F1374       F  0.50206364  0.09783476  0.09329366    -0.23400
H1375       H  0.49671310  0.10169864  0.00990072     0.17700
C1376       C  0.52343780  0.11089992  0.90707001     0.25700
C1377       C  0.51618078  0.11403846  0.86531288    -0.12000
C1378       C  0.50054899  0.12390955  0.86093782    -0.26000
C1379       C  0.49252837  0.13090461  0.89925507     0.36600
C1380       C  0.49967210  0.12758875  0.94071238    -0.27600
F1381       F  0.53829917  0.10102207  0.91041055    -0.19700
H1382       H  0.52274107  0.10864085  0.83644289     0.15900
F1383       F  0.47754982  0.14064671  0.89708821    -0.23500
H1384       H  0.49311628  0.13288367  0.96974175     0.17800
C1385       C  0.49337206  0.09999497  0.41587346    -0.27500
C1386       C  0.49211016  0.11345826  0.44759856     0.06100
C1387       C  0.49837075  0.13040572  0.43743855     0.25700
C1388       C  0.50569381  0.13385238  0.39599976    -0.12000
C1389       C  0.50676711  0.12051125  0.36370609    -0.25900
C1390       C  0.50049363  0.10347547  0.37405800     0.36500
C1391       C  0.48471029  0.10989419  0.49182719     0.06100
F1392       F  0.49769273  0.14355604  0.46800726    -0.19700
H1393       H  0.51039889  0.14704872  0.38909135     0.15900
F1394       F  0.50149666  0.09009829  0.34418727    -0.23400
H1395       H  0.48872117  0.08683492  0.42343990     0.17700
C1396       C  0.46992528  0.11929197  0.50689631     0.25700
C1397       C  0.46469427  0.11811475  0.55105431    -0.12000
C1398       C  0.47424729  0.10769926  0.58108479    -0.26000
C1399       C  0.48831261  0.09728773  0.56506696     0.36600
C1400       C  0.49342328  0.09836900  0.52066482    -0.27600
F1401       F  0.46099261  0.13017091  0.47924776    -0.19700
H1402       H  0.45376113  0.12618213  0.56221709     0.15900
F1403       F  0.49752937  0.08656323  0.59250252    -0.23500
H1404       H  0.50476228  0.09092137  0.50933097     0.17800
C1405       C  0.54612748  0.00010616  0.24598968    -0.27500
C1406       C  0.55735910  0.01118551  0.26997104     0.06100
C1407       C  0.56857829  0.00387142  0.30196092     0.25700
C1408       C  0.56767523  0.98578509  0.31164007    -0.12000
C1409       C  0.55552510  0.97489230  0.28959642    -0.25900
C1410       C  0.54524679  0.98214144  0.25538466     0.36500
C1411       C  0.55561839  0.03045555  0.26431963     0.06100
F1412       F  0.57949631  0.01438255  0.32576174    -0.19700
H1413       H  0.57573145  0.98052593  0.33802019     0.15900
F1414       F  0.53390276  0.97197738  0.23182203    -0.23400
H1415       H  0.53754171  0.00554478  0.22088760     0.17700
C1416       C  0.56926096  0.04072762  0.24658145     0.25700
C1417       C  0.56641761  0.05865282  0.23742394    -0.12000
C1418       C  0.54993720  0.06655335  0.24594618    -0.26000
C1419       C  0.53657911  0.05623509  0.26559982     0.36600
C1420       C  0.53943613  0.03841092  0.27432179    -0.27600
F1421       F  0.58501028  0.03325791  0.23635819    -0.19700
H1422       H  0.57696490  0.06621090  0.22257043     0.15900
F1423       F  0.52060347  0.06319573  0.27600489    -0.23500
H1424       H  0.52884187  0.03065784  0.28839141     0.17800
C1425       C  0.92257058  0.68420542  0.10421559    -0.27500
C1426       C  0.92891390  0.70109106  0.11488902     0.06100
C1427       C  0.94376098  0.70263395  0.14213906     0.25700
C1428       C  0.95148376  0.68756247  0.16031755    -0.12000
C1429       C  0.94460312  0.67064154  0.15166575    -0.25900
C1430       C  0.93036306  0.66908031  0.12209971     0.36500
C1431       C  0.91871373  0.71693186  0.10206050     0.06100
F1432       F  0.95006175  0.71875953  0.15367171    -0.19700
H1433       H  0.96252618  0.68923624  0.18252483     0.15900
F1434       F  0.92332949  0.65309114  0.11220046    -0.23400
H1435       H  0.91114522  0.68278736  0.08312712     0.17700
C1436       C  0.92644602  0.73103342  0.07901964     0.25700
C1437       C  0.91644117  0.74601448  0.06858979    -0.12000
C1438       C  0.89860370  0.74724672  0.08124133    -0.26000
C1439       C  0.89103663  0.73308408  0.10476802     0.36600
C1440       C  0.90099451  0.71813335  0.11471744    -0.27600
F1441       F  0.94353259  0.73017595  0.06588703    -0.19700
H1442       H  0.92265994  0.75660638  0.05037390     0.15900
F1443       F  0.87395790  0.73349712  0.11806114    -0.23500
H1444       H  0.89488228  0.70748525  0.13299729     0.17800
C1445       C  0.89417238  0.64182505  0.32752345    -0.27500
C1446       C  0.89850062  0.64399769  0.37229516     0.06100
C1447       C  0.91482018  0.63777164  0.38772286     0.25700
C1448       C  0.92733107  0.63142949  0.35780919    -0.12000
C1449       C  0.92364108  0.63099251  0.31240937    -0.25900
C1450       C  0.90665356  0.63533586  0.29762523     0.36500
C1451       C  0.88800697  0.65604610  0.40032070     0.06100
F1452       F  0.91943240  0.63967715  0.43081855    -0.19700
H1453       H  0.94034672  0.62803118  0.36971689     0.15900
F1454       F  0.90279678  0.63531862  0.25381784    -0.23400
H1455       H  0.88164053  0.64653626  0.31518028     0.17700
C1456       C  0.88565006  0.67364671  0.38675104     0.25700
C1457       C  0.87963310  0.68629304  0.41667600    -0.12000
C1458       C  0.87574140  0.68160463  0.46037361    -0.26000
C1459       C  0.87678934  0.66379240  0.47314684     0.36600
C1460       C  0.88297689  0.65110200  0.44321811    -0.27600
F1461       F  0.89078049  0.67898320  0.34588180    -0.19700
H1462       H  0.87895025  0.69997462  0.40640248     0.15900
F1463       F  0.87350916  0.65896429  0.51557067    -0.23500
H1464       H  0.88482437  0.63762960  0.45423775     0.17800
C1465       C  0.96600579  0.49416876  0.24350155    -0.27500
C1466       C  0.95562706  0.50580442  0.26842512     0.06100
C1467       C  0.94572073  0.49941260  0.30416952     0.25700
C1468       C  0.94676092  0.48156169  0.31584123    -0.12000
C1469       C  0.95795374  0.47007825  0.29239360    -0.25900
C1470       C  0.96719380  0.47642832  0.25528403     0.36500
C1471       C  0.95685868  0.52482484  0.25968388     0.06100
F1472       F  0.93578556  0.51060717  0.32895865    -0.19700
H1473       H  0.93961517  0.47694280  0.34460293     0.15900
F1474       F  0.97770465  0.46555435  0.23103035    -0.23400
H1475       H  0.97370738  0.49900288  0.21586940     0.17700
C1476       C  0.97056192  0.53456408  0.27875542     0.25700
C1477       C  0.97287997  0.55224593  0.26764043    -0.12000
C1478       C  0.96153484  0.56052453  0.23743010    -0.26000
C1479       C  0.94754527  0.55082004  0.21901651     0.36600
C1480       C  0.94530162  0.53301312  0.23003577    -0.27600
F1481       F  0.98195021  0.52681238  0.30732388    -0.19700
H1482       H  0.98370047  0.55945283  0.28238894     0.15900
F1483       F  0.93663350  0.55825143  0.18883463    -0.23500
H1484       H  0.93482968  0.52549378  0.21471624     0.17800
C1485       C  0.08257335  0.34911291  0.37576323    -0.27500
C1486       C  0.06747218  0.35005867  0.40253033     0.06100
C1487       C  0.06739926  0.34169823  0.44375931     0.25700
C1488       C  0.08231032  0.33271433  0.45827904    -0.12000
C1489       C  0.09770236  0.33201199  0.43219745    -0.25900
C1490       C  0.09766969  0.34028851  0.39052268     0.36500
C1491       C  0.05175070  0.35970360  0.38739692     0.06100
F1492       F  0.05283182  0.34212165  0.46987007    -0.19700
H1493       H  0.08185502  0.32658307  0.49055382     0.15900
F1494       F  0.11214187  0.33993518  0.36411819    -0.23400
H1495       H  0.08274018  0.35547967  0.34374822     0.17700
C1496       C  0.04537843  0.37434953  0.41116277     0.25700
C1497       C  0.03046009  0.38338592  0.39648897    -0.12000
C1498       C  0.02153117  0.37778906  0.35829652    -0.26000
C1499       C  0.02782025  0.36292379  0.33497568     0.36600
C1500       C  0.04290443  0.35408285  0.34931366    -0.27600
F1501       F  0.05380943  0.38011833  0.44799569    -0.19700
H1502       H  0.02590154  0.39478379  0.41496277     0.15900
F1503       F  0.01977838  0.35726982  0.29750113    -0.23500
H1504       H  0.04766284  0.34277071  0.33082137     0.17800
C1505       C  0.92706389  0.67720804  0.67112605    -0.27500
C1506       C  0.94407717  0.68055076  0.65472891     0.06100
C1507       C  0.94613860  0.69297778  0.62068577     0.25700
C1508       C  0.93153101  0.70184384  0.60359979    -0.12000
C1509       C  0.91442603  0.69838738  0.61939771    -0.25900
C1510       C  0.91235893  0.68599143  0.65372055     0.36500
C1511       C  0.95949146  0.67040017  0.67128431     0.06100
F1512       F  0.96218393  0.69592369  0.60226698    -0.19700
H1513       H  0.93362119  0.71103347  0.57672866     0.15900
F1514       F  0.89618012  0.68223715  0.67033174    -0.23400
H1515       H  0.92515570  0.66766844  0.69731173     0.17700
C1516       C  0.97514652  0.67895566  0.68379859     0.25700
C1517       C  0.98998968  0.66912161  0.69584507    -0.12000
C1518       C  0.98956171  0.65053840  0.69616654    -0.26000
C1519       C  0.97362532  0.64202668  0.68517204     0.36600
C1520       C  0.95883484  0.65189389  0.67286127    -0.27600
F1521       F  0.97604778  0.69685204  0.68485522    -0.19700
H1522       H  0.00187113  0.67613822  0.70492596     0.15900
F1523       F  0.97226629  0.62416273  0.68584478    -0.23500
H1524       H  0.94691058  0.64500582  0.66347849     0.17800
C1525       C  0.00222489  0.61517862  0.43480222    -0.27500
C1526       C  0.01803059  0.60570695  0.43894399     0.06100
C1527       C  0.02693143  0.59994922  0.40082462     0.25700
C1528       C  0.02005264  0.60371320  0.35910638    -0.12000
C1529       C  0.00434884  0.61341867  0.35497759    -0.25900
C1530       C  0.99542200  0.61906273  0.39324952     0.36500
C1531       C  0.02483440  0.60198315  0.48349205     0.06100
F1532       F  0.04203712  0.59043861  0.40397169    -0.19700
H1533       H  0.02709635  0.59920486  0.32999443     0.15900
F1534       F  0.97992122  0.62795803  0.39058228    -0.23400
H1535       H  0.99518834  0.61968045  0.46394646     0.17700
C1536       C  0.04160825  0.60778049  0.49661487     0.25700
C1537       C  0.04652926  0.60683158  0.54106919    -0.12000
C1538       C  0.03471206  0.60024510  0.57276093    -0.26000
C1539       C  0.01846753  0.59326177  0.55881840     0.36600
C1540       C  0.01361704  0.59418807  0.51459385    -0.27600
F1541       F  0.05264614  0.61557224  0.46721797    -0.19700
H1542       H  0.05908816  0.61227844  0.55106026     0.15900
F1543       F  0.00695735  0.58611731  0.58815191    -0.23500
H1544       H  0.00075214  0.58942573  0.50480898     0.17800
C1545       C  0.99485559  0.61942184  0.91597141    -0.27500
C1546       C  0.99711157  0.60287783  0.93589663     0.06100
C1547       C  0.00553584  0.58923770  0.91233518     0.25700
C1548       C  0.01217073  0.59242141  0.87001762    -0.12000
C1549       C  0.01055534  0.60923051  0.85097504    -0.25900
C1550       C  0.00149226  0.62261545  0.87388956     0.36500
C1551       C  0.99154538  0.60062728  0.98218760     0.06100
F1552       F  0.00741785  0.57293577  0.93027894    -0.19700
H1553       H  0.01897742  0.58189879  0.85261257     0.15900
F1554       F  0.99900148  0.63878006  0.85559857    -0.23400
H1555       H  0.98838035  0.63009091  0.93361759     0.17700
C1556       C  0.00362777  0.59495163  0.01423755     0.25700
C1557       C  0.99916164  0.59571270  0.05888091    -0.12000
C1558       C  0.98268542  0.60230507  0.07237775    -0.26000
C1559       C  0.97033583  0.60730829  0.04006776     0.36600
C1560       C  0.97477749  0.60639390  0.99540481    -0.27600
F1561       F  0.02017761  0.58989280  0.00273544    -0.19700
H1562       H  0.00890772  0.59172474  0.08301162     0.15900
F1563       F  0.95437007  0.61403471  0.05145341    -0.23500
H1564       H  0.96533859  0.61088417  0.97104364     0.17800
C1565       C  0.02331820  0.42946256  0.13832333    -0.27500
C1566       C  0.01677536  0.41973669  0.10252712     0.06100
C1567       C  0.00392964  0.40680697  0.10962341     0.25700
C1568       C  0.99731429  0.40395433  0.15190655    -0.12000
C1569       C  0.00333784  0.41398966  0.18803867    -0.25900
C1570       C  0.01662949  0.42669093  0.18092769     0.36500
C1571       C  0.02273040  0.42326447  0.05721664     0.06100
F1572       F  0.99770208  0.39700801  0.07541101    -0.19700
H1573       H  0.98722201  0.39401043  0.15609080     0.15900
F1574       F  0.02308093  0.43650807  0.21480260    -0.23400
H1575       H  0.03331960  0.43942147  0.13306967     0.17700
C1576       C  0.01100856  0.43074906  0.02682582     0.25700
C1577       C  0.01533474  0.43126822  0.98206670    -0.12000
C1578       C  0.03143207  0.42432518  0.96691812    -0.26000
C1579       C  0.04359660  0.41769466  0.99795678     0.36600
C1580       C  0.03919817  0.41718411  0.04285031    -0.27600
F1581       F  0.99508193  0.43691563  0.04035936    -0.19700
H1582       H  0.00584045  0.43666349  0.95907612     0.15900
F1583       F  0.05924073  0.41071523  0.98482114    -0.23500
H1584       H  0.04826173  0.41124346  0.06610312     0.17800
C1585       C  0.99575807  0.41010534  0.61277619    -0.27500
C1586       C  0.99116771  0.42746111  0.60204708     0.06100
C1587       C  0.99408628  0.44104554  0.63278537     0.25700
C1588       C  0.00163397  0.43719233  0.67387845    -0.12000
C1589       C  0.00658881  0.41978126  0.68447729    -0.25900
C1590       C  0.00345458  0.40623341  0.65333936     0.36500
C1591       C  0.98429644  0.43101660  0.55749388     0.06100
F1592       F  0.98959601  0.45794477  0.62306186    -0.19700
H1593       H  0.00380880  0.44786349  0.69713868     0.15900
F1594       F  0.00772935  0.38916776  0.66187115    -0.23400
H1595       H  0.99367074  0.39952892  0.58914943     0.17700
C1596       C  0.99488128  0.43959377  0.52621435     0.25700
C1597       C  0.99014265  0.43943853  0.48164300    -0.12000
C1598       C  0.97476689  0.43073786  0.46757791    -0.26000
C1599       C  0.96353603  0.42326306  0.49966121     0.36600
C1600       C  0.96840682  0.42330498  0.54416454    -0.27600
F1601       F  0.01048430  0.44685900  0.53825658    -0.19700
H1602       H  0.99898328  0.44542462  0.45787063     0.15900
F1603       F  0.94848636  0.41483070  0.48795107    -0.23500
H1604       H  0.96019032  0.41654519  0.56805990     0.17800
C1605       C  0.07231099  0.49172946  0.77100318    -0.27500
C1606       C  0.06085663  0.50511996  0.78531650     0.06100
C1607       C  0.04695104  0.50097902  0.81405726     0.25700
C1608       C  0.04390638  0.48350525  0.82625092    -0.12000
C1609       C  0.05480416  0.46989405  0.81040880    -0.25900
C1610       C  0.06942374  0.47418682  0.78373529     0.36500
C1611       C  0.06140174  0.52275240  0.76500396     0.06100
F1612       F  0.03580598  0.51378924  0.82855692    -0.19700
H1613       H  0.03273514  0.48054383  0.84730654     0.15900
F1614       F  0.08015778  0.46134623  0.76752760    -0.23400
H1615       H  0.08294802  0.49475180  0.74832897     0.17700
C1616       C  0.07230233  0.53621968  0.78133192     0.25700
C1617       C  0.07051171  0.55349873  0.76525629    -0.12000
C1618       C  0.05767188  0.55745145  0.73327999    -0.26000
C1619       C  0.04744402  0.54367594  0.71563084     0.36600
C1620       C  0.04934523  0.52651856  0.73139180    -0.27600
F1621       F  0.08396518  0.53283466  0.81417981    -0.19700
H1622       H  0.07846994  0.56392591  0.77942359     0.15900
F1623       F  0.03529616  0.54687339  0.68377187    -0.23500
H1624       H  0.04090799  0.51620297  0.71847710     0.17800
C1625       C  0.07335388  0.32622008  0.87820047    -0.27500
C1626       C  0.08823058  0.32831644  0.90504758     0.06100
C1627       C  0.09380093  0.34536108  0.91660272     0.25700
C1628       C  0.08477176  0.36012285  0.90086932    -0.12000
C1629       C  0.07017754  0.35816083  0.87275340    -0.25900
C1630       C  0.06441922  0.34098580  0.86188721     0.36500
C1631       C  0.09815342  0.31272605  0.92026191     0.06100
F1632       F  0.10801066  0.34771129  0.94310074    -0.19700
H1633       H  0.08955855  0.37311332  0.90968118     0.15900
F1634       F  0.05026752  0.33840287  0.83531485    -0.23400
H1635       H  0.06891192  0.31313365  0.86910073     0.17700
C1636       C  0.09018981  0.30012700  0.94763108     0.25700
C1637       C  0.09990175  0.28570460  0.96294310    -0.12000
C1638       C  0.11771035  0.28351331  0.95094323    -0.26000
C1639       C  0.12552265  0.29607218  0.92263454     0.36600
C1640       C  0.11580790  0.31055916  0.90775098    -0.27600
F1641       F  0.07315673  0.30204517  0.96050662    -0.19700
H1642       H  0.09347139  0.27633314  0.98454505     0.15900
F1643       F  0.14250964  0.29443812  0.90913050    -0.23500
H1644       H  0.12204889  0.32010721  0.88625545     0.17800
C1645       C  0.13201329  0.38056993  0.59631852    -0.27500
C1646       C  0.12721327  0.37643150  0.63985163     0.06100
C1647       C  0.12986670  0.35917549  0.65556159     0.25700
C1648       C  0.13580412  0.34599909  0.62702380    -0.12000
C1649       C  0.13909311  0.34972991  0.58234469    -0.25900
C1650       C  0.13804363  0.36735921  0.56767651     0.36500
C1651       C  0.11596176  0.38856842  0.66556295     0.06100
F1652       F  0.12481629  0.35456849  0.69705581    -0.19700
H1653       H  0.13663220  0.33258052  0.63923436     0.15900
F1654       F  0.14115579  0.37157934  0.52477366    -0.23400
H1655       H  0.12990971  0.39378409  0.58369051     0.17700
C1656       C  0.11952853  0.39203283  0.71024847     0.25700
C1657       C  0.10610050  0.39806282  0.73802234    -0.12000
C1658       C  0.08897614  0.40054474  0.72153881    -0.26000
C1659       C  0.08605468  0.39919945  0.67579206     0.36600
C1660       C  0.09953367  0.39331495  0.64799943    -0.27600
F1661       F  0.13548845  0.38802641  0.72772525    -0.19700
H1662       H  0.10874872  0.39926732  0.77308075     0.15900
F1663       F  0.06989962  0.40239127  0.65841026    -0.23500
H1664       H  0.09659886  0.39084624  0.61349206     0.17800
C1665       C  0.11986797  0.89038061  0.33031396    -0.27500
C1666       C  0.11463771  0.88535308  0.37292570     0.06100
C1667       C  0.09763348  0.88952220  0.38795842     0.25700
C1668       C  0.08545940  0.89695888  0.35908746    -0.12000
C1669       C  0.09014723  0.90050721  0.31507444    -0.25900
C1670       C  0.10775038  0.89816670  0.30156657     0.36500
C1671       C  0.12523939  0.87273453  0.39836626     0.06100
F1672       F  0.09224973  0.88463050  0.42898540    -0.19700
H1673       H  0.07199776  0.89877247  0.37021050     0.15900
F1674       F  0.11274680  0.90155384  0.25931723    -0.23400
H1675       H  0.13294967  0.88715159  0.31839050     0.17700
C1676       C  0.12616703  0.85510960  0.38406095     0.25700
C1677       C  0.13199340  0.84200036  0.41281778    -0.12000
C1678       C  0.13706013  0.84628705  0.45617676    -0.26000
C1679       C  0.13754981  0.86420907  0.46905974     0.36600
C1680       C  0.13147642  0.87728439  0.44037365    -0.27600
F1681       F  0.11989795  0.85037277  0.34373053    -0.19700
H1682       H  0.13164406  0.82837329  0.40187769     0.15900
F1683       F  0.14249142  0.86902180  0.51047147    -0.23500
H1684       H  0.13067462  0.89083054  0.45181759     0.17800
C1685       C  0.05410767  0.87501993  0.65761476    -0.27500
C1686       C  0.05345093  0.85659091  0.66186089     0.06100
C1687       C  0.03821547  0.84878100  0.67941295     0.25700
C1688       C  0.02399589  0.85930821  0.69294055    -0.12000
C1689       C  0.02459323  0.87784730  0.68900670    -0.25900
C1690       C  0.03985192  0.88557424  0.67066620     0.36500
C1691       C  0.06875833  0.84574337  0.64775267     0.06100
F1692       F  0.03726422  0.83100720  0.68453604    -0.19700
H1693       H  0.01252697  0.85288255  0.70683769     0.15900
F1694       F  0.04116685  0.90332197  0.66556913    -0.23400
H1695       H  0.06570797  0.88125564  0.64380954     0.17700
C1696       C  0.06711968  0.83307379  0.61403278     0.25700
C1697       C  0.08200739  0.82413210  0.59817692    -0.12000
C1698       C  0.09885799  0.82759888  0.61561657    -0.26000
C1699       C  0.10027376  0.83972596  0.65093869     0.36600
C1700       C  0.08537731  0.84875935  0.66645718    -0.27600
F1701       F  0.05127866  0.83002801  0.59478789    -0.19700
H1702       H  0.08037166  0.81492427  0.57104553     0.15900
F1703       F  0.11607663  0.84329984  0.66977600    -0.23500
H1704       H  0.08684777  0.85837424  0.69277211     0.17800
C1705       C  0.07777030  0.69956282  0.65174492    -0.27500
C1706       C  0.09221429  0.69731076  0.62328431     0.06100
C1707       C  0.09735432  0.68011569  0.61114607     0.25700
C1708       C  0.08836762  0.66546800  0.62803389    -0.12000
C1709       C  0.07420462  0.66769402  0.65763677    -0.25900
C1710       C  0.06883488  0.68498664  0.66878435     0.36500
C1711       C  0.10210168  0.71299940  0.60783141     0.06100
F1712       F  0.11105767  0.67747896  0.58297652    -0.19700
H1713       H  0.09282549  0.65237758  0.61887282     0.15900
F1714       F  0.05507354  0.68791409  0.69660619    -0.23400
H1715       H  0.07366257  0.71267418  0.66174533     0.17700
C1716       C  0.09325019  0.72741583  0.58894347     0.25700
C1717       C  0.10252191  0.74256968  0.57682451    -0.12000
C1718       C  0.12084914  0.74371903  0.58314980    -0.26000
C1719       C  0.12972755  0.72913454  0.60171428     0.36600
C1720       C  0.12039361  0.71398278  0.61391338    -0.27600
F1721       F  0.07563611  0.72675352  0.58158468    -0.19700
H1722       H  0.09528309  0.75338602  0.56218121     0.15900
F1723       F  0.14738968  0.72944573  0.60841744    -0.23500
H1724       H  0.12742756  0.70310635  0.62891776     0.17800
C1725       C  0.41364079  0.89460944  0.65136906    -0.27500
C1726       C  0.39704804  0.88970538  0.66776267     0.06100
C1727       C  0.39324827  0.89229450  0.71287014     0.25700
C1728       C  0.40621588  0.89884376  0.74140350    -0.12000
C1729       C  0.42322158  0.90240096  0.72542826    -0.25900
C1730       C  0.42669714  0.90070628  0.67997769     0.36500
C1731       C  0.38539074  0.87900919  0.63917220     0.06100
F1732       F  0.37736559  0.88753925  0.72968001    -0.19700
H1733       H  0.40339324  0.89982882  0.77640992     0.15900
F1734       F  0.44303078  0.90401614  0.66365797    -0.23400
H1735       H  0.41692501  0.89244538  0.61694186     0.17700
C1736       C  0.38054142  0.88484107  0.59677413     0.25700
C1737       C  0.37362956  0.87290248  0.56588808    -0.12000
C1738       C  0.37185608  0.85498252  0.57675353    -0.26000
C1739       C  0.37532670  0.84953000  0.62031939     0.36600
C1740       C  0.38191983  0.86149031  0.65126284    -0.27600
F1741       F  0.38357484  0.90177920  0.58441436    -0.19700
H1742       H  0.37110277  0.87734408  0.53250318     0.15900
F1743       F  0.37348696  0.83234487  0.63211212    -0.23500
H1744       H  0.38568603  0.85669417  0.68358675     0.17800
C1745       C  0.42614922  0.86225655  0.37739713    -0.27500
C1746       C  0.44285430  0.85483221  0.38441408     0.06100
C1747       C  0.44410491  0.83860694  0.40658670     0.25700
C1748       C  0.42893968  0.83023686  0.42235955    -0.12000
C1749       C  0.41216430  0.83782946  0.41644271    -0.25900
C1750       C  0.41093136  0.85385683  0.39290738     0.36500
C1751       C  0.45893916  0.86454330  0.37082665     0.06100
F1752       F  0.46007039  0.83128084  0.41498610    -0.19700
H1753       H  0.43043311  0.81798142  0.44037649     0.15900
F1754       F  0.39513323  0.86177858  0.38602526    -0.23400
H1755       H  0.42491871  0.87475142  0.36027953     0.17700
C1756       C  0.47169694  0.85667198  0.34336853     0.25700
C1757       C  0.48700276  0.86590745  0.33190254    -0.12000
C1758       C  0.48992069  0.88320397  0.34746763    -0.26000
C1759       C  0.47699942  0.89105630  0.37490412     0.36600
C1760       C  0.46171277  0.88180261  0.38620060    -0.27600
F1761       F  0.46915915  0.84020110  0.32678936    -0.19700
H1762       H  0.49649561  0.85953443  0.31032168     0.15900
F1763       F  0.47904528  0.90766708  0.39104548    -0.23500
H1764       H  0.45206696  0.88806929  0.40757744     0.17800
C1765       C  0.23643162  0.83270387  0.54722110    -0.27500
C1766       C  0.24494322  0.82326678  0.51338201     0.06100
C1767       C  0.23554041  0.81065500  0.48895694     0.25700
C1768       C  0.21803059  0.80702215  0.49954839    -0.12000
C1769       C  0.20958277  0.81612684  0.53409402    -0.25900
C1770       C  0.21875734  0.82933345  0.55724048     0.36500
C1771       C  0.26414123  0.82459022  0.50776502     0.06100
F1772       F  0.24362050  0.80113100  0.45664461    -0.19700
H1773       H  0.21114416  0.79681725  0.48135760     0.15900
F1774       F  0.21102019  0.83809185  0.59136992    -0.23400
H1775       H  0.24366300  0.84224415  0.56675772     0.17700
C1776       C  0.27160732  0.83206478  0.46963917     0.25700
C1777       C  0.28979382  0.83082529  0.46228917    -0.12000
C1778       C  0.30052842  0.82169889  0.49233872    -0.26000
C1779       C  0.29304975  0.81482013  0.53119525     0.36600
C1780       C  0.27502066  0.81642939  0.53895692    -0.27600
F1781       F  0.26123040  0.83991338  0.43892480    -0.19700
H1782       H  0.29531941  0.83604306  0.43197456     0.15900
F1783       F  0.30312659  0.80605271  0.56099363    -0.23500
H1784       H  0.26938071  0.81051290  0.56832949     0.17800
C1785       C  0.08967599  0.80239641  0.08504739    -0.27500
C1786       C  0.09823888  0.81620502  0.10709736     0.06100
C1787       C  0.11619418  0.81464504  0.11711710     0.25700
C1788       C  0.12552691  0.79959807  0.10433713    -0.12000
C1789       C  0.11713368  0.78580796  0.08134585    -0.25900
C1790       C  0.09899023  0.78733260  0.07203250     0.36500
C1791       C  0.08824546  0.83190015  0.12132934     0.06100
F1792       F  0.12460800  0.82752024  0.14011758    -0.19700
H1793       H  0.13939237  0.79881238  0.11239326     0.15900
F1794       F  0.09021425  0.77443410  0.05002322    -0.23400
H1795       H  0.07576752  0.80338645  0.07753758     0.17700
C1796       C  0.09327835  0.84888048  0.10782145     0.25700
C1797       C  0.08460737  0.86372008  0.12475083    -0.12000
C1798       C  0.07084182  0.86184572  0.15557628    -0.26000
C1799       C  0.06536758  0.84466333  0.16744448     0.36600
C1800       C  0.07400276  0.82990181  0.15027238    -0.27600
F1801       F  0.10671124  0.85108531  0.07867341    -0.19700
H1802       H  0.08905120  0.87668661  0.11470535     0.15900
F1803       F  0.05209454  0.84199160  0.19681892    -0.23500
H1804       H  0.06996792  0.81685756  0.16084400     0.17800
C1805       C  0.10034958  0.63986389  0.88860349    -0.27500
C1806       C  0.11694093  0.64428041  0.87162910     0.06100
C1807       C  0.12129876  0.63970007  0.82803072     0.25700
C1808       C  0.10855469  0.63229567  0.80045872    -0.12000
C1809       C  0.09125595  0.62979916  0.81593081    -0.25900
C1810       C  0.08750356  0.63275485  0.86096730     0.36500
C1811       C  0.12749190  0.65728449  0.89588460     0.06100
F1812       F  0.13733907  0.64385473  0.81116621    -0.19700
H1813       H  0.11180636  0.63005787  0.76600394     0.15900
F1814       F  0.07109647  0.63003535  0.87751605    -0.23400
H1815       H  0.09683198  0.64344076  0.92220590     0.17700
C1816       C  0.12678842  0.67498935  0.88248125     0.25700
C1817       C  0.13280823  0.68825447  0.91049262    -0.12000
C1818       C  0.13959537  0.68408994  0.95233190    -0.26000
C1819       C  0.14166269  0.66620000  0.96413440     0.36600
C1820       C  0.13540485  0.65290001  0.93615010    -0.27600
F1821       F  0.11869848  0.67955471  0.84416675    -0.19700
H1822       H  0.13114898  0.70189274  0.90050119     0.15900
F1823       F  0.14822888  0.66159718  0.00418741    -0.23500
H1824       H  0.13581783  0.63926896  0.94694288     0.17800
C1825       C  0.08812321  0.67955145  0.16143249    -0.27500
C1826       C  0.07105780  0.68440841  0.14852164     0.06100
C1827       C  0.06882734  0.69846549  0.11890496     0.25700
C1828       C  0.08347622  0.70710870  0.10146643    -0.12000
C1829       C  0.10066008  0.70186727  0.11297104    -0.25900
C1830       C  0.10282134  0.68813014  0.14388727     0.36500
C1831       C  0.05570640  0.67424676  0.16437461     0.06100
F1832       F  0.05252018  0.70326630  0.10505558    -0.19700
H1833       H  0.08130506  0.71757875  0.07778543     0.15900
F1834       F  0.11906793  0.68258677  0.15636623    -0.23400
H1835       H  0.09007113  0.66887861  0.18468233     0.17700
C1836       C  0.05533545  0.65579953  0.15978797     0.25700
C1837       C  0.04067983  0.64627224  0.17381069    -0.12000
C1838       C  0.02604116  0.65489288  0.19266826    -0.26000
C1839       C  0.02643242  0.67343670  0.19717458     0.36600
C1840       C  0.04116647  0.68295704  0.18314525    -0.27600
F1841       F  0.06895836  0.64699948  0.14061321    -0.19700
H1842       H  0.04082554  0.63206757  0.16965445     0.15900
F1843       F  0.01266323  0.68244122  0.21502420    -0.23500
H1844       H  0.04126569  0.69717333  0.18711657     0.17800
C1845       C  0.14928113  0.77583597  0.84602818    -0.27500
C1846       C  0.16682355  0.77977094  0.83579295     0.06100
C1847       C  0.18006190  0.77688876  0.86708175     0.25700
C1848       C  0.17568855  0.77000145  0.90840254    -0.12000
C1849       C  0.15812019  0.76566062  0.91849550    -0.25900
C1850       C  0.14490156  0.76873158  0.88692582     0.36500
C1851       C  0.17094255  0.78578597  0.79107994     0.06100
F1852       F  0.19711863  0.78065473  0.85755615    -0.19700
H1853       H  0.18609365  0.76771993  0.93217084     0.15900
F1854       F  0.12775428  0.76500272  0.89553146    -0.23400
H1855       H  0.13900144  0.77793390  0.82178601     0.17700
C1856       C  0.17874933  0.77410530  0.76083083     0.25700
C1857       C  0.17837858  0.77792957  0.71580409    -0.12000
C1858       C  0.17031972  0.79349648  0.70060733    -0.26000
C1859       C  0.16392561  0.80589157  0.73162188     0.36600
C1860       C  0.16411736  0.80191109  0.77652927    -0.27600
F1861       F  0.18535173  0.75837285  0.77449424    -0.19700
H1862       H  0.18366469  0.76831478  0.69271785     0.15900
F1863       F  0.15628070  0.82123323  0.71862339    -0.23500
H1864       H  0.15801085  0.81095571  0.79981107     0.17800
C1865       C  0.16168523  0.73059404  0.27449931    -0.27500
C1866       C  0.16801488  0.74694068  0.28935228     0.06100
C1867       C  0.17505654  0.75894807  0.25883968     0.25700
C1868       C  0.17495154  0.75494729  0.21385468    -0.12000
C1869       C  0.16777807  0.73895188  0.19854913    -0.25900
C1870       C  0.16149852  0.72658362  0.22948281     0.36500
C1871       C  0.16540109  0.75222235  0.33575769     0.06100
F1872       F  0.18094395  0.77501667  0.27218410    -0.19700
H1873       H  0.17994160  0.76468273  0.19087396     0.15900
F1874       F  0.15424976  0.71106873  0.21632587    -0.23400
H1875       H  0.15625253  0.72120082  0.29775339     0.17700
C1876       C  0.14839177  0.75203422  0.35402464     0.25700
C1877       C  0.14549244  0.75861538  0.39637901    -0.12000
C1878       C  0.15947868  0.76541281  0.42135565    -0.26000
C1879       C  0.17663903  0.76510779  0.40366319     0.36600
C1880       C  0.17952159  0.75861979  0.36095270    -0.27600
F1881       F  0.13441722  0.74627170  0.33011067    -0.19700
H1882       H  0.13220487  0.75860754  0.40946766     0.15900
F1883       F  0.19044367  0.77177718  0.42670068    -0.23500
H1884       H  0.19270000  0.75884861  0.34721555     0.17800
C1885       C  0.41876835  0.80121703  0.90914855    -0.27500
C1886       C  0.41466322  0.81792401  0.92694703     0.06100
C1887       C  0.40046842  0.81930755  0.95693318     0.25700
C1888       C  0.39054404  0.80439145  0.96809344    -0.12000
C1889       C  0.39479734  0.78774707  0.95053564    -0.25900
C1890       C  0.40906640  0.78624291  0.92111990     0.36500
C1891       C  0.42459789  0.83388808  0.91234610     0.06100
F1892       F  0.39639494  0.83500220  0.97622447    -0.19700
H1893       H  0.37974231  0.80576463  0.99130737     0.15900
F1894       F  0.41325093  0.77038898  0.90283710    -0.23400
H1895       H  0.42930387  0.79978966  0.88523107     0.17700
C1896       C  0.44312643  0.83381740  0.90866836     0.25700
C1897       C  0.45205259  0.84850669  0.89142804    -0.12000
C1898       C  0.44273376  0.86368293  0.87862688    -0.26000
C1899       C  0.42429140  0.86393260  0.88357539     0.36600
C1900       C  0.41538179  0.84917389  0.89985525    -0.27600
F1901       F  0.45261973  0.81960120  0.92197152    -0.19700
H1902       H  0.46624439  0.84803411  0.88807358     0.15900
F1903       F  0.41471400  0.87809439  0.87020546    -0.23500
H1904       H  0.40114102  0.84951929  0.90129678     0.17800
C1905       C  0.34176232  0.75250561  0.65800956    -0.27500
C1906       C  0.34702445  0.76214438  0.69541924     0.06100
C1907       C  0.35575583  0.77833560  0.68978646     0.25700
C1908       C  0.35881569  0.78490397  0.64758397    -0.12000
C1909       C  0.35337109  0.77547177  0.61007365    -0.25900
C1910       C  0.34483862  0.75912582  0.61551922     0.36500
C1911       C  0.34412460  0.75515564  0.74036991     0.06100
F1912       F  0.36185354  0.78757616  0.72509520    -0.19700
H1913       H  0.36554410  0.79742787  0.64426286     0.15900
F1914       F  0.34002274  0.74930588  0.57995042    -0.23400
H1915       H  0.33526319  0.73987553  0.66176338     0.17700
C1916       C  0.33672083  0.76595931  0.77334519     0.25700
C1917       C  0.33683648  0.76055143  0.81727616    -0.12000
C1918       C  0.34410372  0.74417469  0.82917073    -0.26000
C1919       C  0.35011253  0.73268097  0.79559971     0.36600
C1920       C  0.35016694  0.73822569  0.75152684    -0.27600
F1921       F  0.32985900  0.78200857  0.76322376    -0.19700
H1922       H  0.33167139  0.76946937  0.84221315     0.15900
F1923       F  0.35690698  0.71657413  0.80541974    -0.23500
H1924       H  0.35578229  0.72965908  0.72642722     0.17800
C1925       C  0.36519553  0.77579102  0.18427725    -0.27500
C1926       C  0.34838193  0.78209946  0.19510684     0.06100
C1927       C  0.33472376  0.78062096  0.16416432     0.25700
C1928       C  0.33798857  0.77304390  0.12269480    -0.12000
C1929       C  0.35488562  0.76668961  0.11163648    -0.25900
C1930       C  0.36846874  0.76807182  0.14318829     0.36500
C1931       C  0.34540756  0.78979210  0.23933658     0.06100
F1932       F  0.31835616  0.78677426  0.17377557    -0.19700
H1933       H  0.32726660  0.77216545  0.09925539     0.15900
F1934       F  0.38498629  0.76209061  0.13454360    -0.23400
H1935       H  0.37581134  0.77668709  0.20804806     0.17700
C1936       C  0.33387539  0.78169838  0.26935523     0.25700
C1937       C  0.33340202  0.78728221  0.31340711    -0.12000
C1938       C  0.34431651  0.80109736  0.32811957    -0.26000
C1939       C  0.35508217  0.80986088  0.29722038     0.36600
C1940       C  0.35567335  0.80412276  0.25331817    -0.27600
F1941       F  0.32399259  0.76763449  0.25682680    -0.19700
H1942       H  0.32495450  0.78033875  0.33642102     0.15900
F1943       F  0.36595432  0.82314026  0.30989614    -0.23500
H1944       H  0.36466242  0.81045071  0.23046119     0.17800
C1945       C  0.27505961  0.70381821  0.98462796    -0.27500
C1946       C  0.26653788  0.71597112  0.01256078     0.06100
C1947       C  0.27645878  0.72895830  0.03431395     0.25700
C1948       C  0.29425723  0.73089472  0.02487509    -0.12000
C1949       C  0.30259472  0.71974683  0.99416484    -0.25900
C1950       C  0.29309486  0.70560281  0.97558944     0.36500
C1951       C  0.24717683  0.71668472  0.01546382     0.06100
F1952       F  0.26868873  0.74034376  0.06316232    -0.19700
H1953       H  0.30143686  0.74153416  0.04062993     0.15900
F1954       F  0.30086819  0.69434162  0.94648769    -0.23400
H1955       H  0.26757589  0.69362786  0.96798001     0.17700
C1956       C  0.23849414  0.73234964  0.00376310     0.25700
C1957       C  0.22058626  0.73429012  0.01182674    -0.12000
C1958       C  0.21086042  0.72063196  0.03153598    -0.26000
C1959       C  0.21931144  0.70441128  0.04032760     0.36600
C1960       C  0.23741490  0.70250547  0.03232506    -0.27600
F1961       F  0.24749824  0.74601189  0.98555864    -0.19700
H1962       H  0.21442765  0.74675650  0.00351162     0.15900
F1963       F  0.21034877  0.69071943  0.05841658    -0.23500
H1964       H  0.24394137  0.69027202  0.04100498     0.17800
C1965       C  0.54147230  0.69069656  0.33664081    -0.27500
C1966       C  0.55542918  0.68222050  0.35820736     0.06100
C1967       C  0.55413370  0.66415450  0.36787308     0.25700
C1968       C  0.53913265  0.65470719  0.35590903    -0.12000
C1969       C  0.52510892  0.66304113  0.33390057    -0.25900
C1970       C  0.52647255  0.68121799  0.32419739     0.36500
C1971       C  0.57099581  0.69230442  0.37272622     0.06100
F1972       F  0.56721090  0.65573708  0.38999004    -0.19700
H1973       H  0.53856067  0.64078787  0.36387516     0.15900
F1974       F  0.51335785  0.68990985  0.30293073    -0.23400
H1975       H  0.54225513  0.70466247  0.32926199     0.17700
C1976       C  0.58799341  0.68712798  0.35971158     0.25700
C1977       C  0.60273493  0.69505616  0.37876183    -0.12000
C1978       C  0.60079770  0.70827410  0.41120500    -0.26000
C1979       C  0.58366329  0.71423982  0.42192325     0.36600
C1980       C  0.56895118  0.70628394  0.40272357    -0.27600
F1981       F  0.59031043  0.67408547  0.32936200    -0.19700
H1982       H  0.61567284  0.69037059  0.36914490     0.15900
F1983       F  0.58098009  0.72724523  0.45219337    -0.23500
H1984       H  0.55590400  0.71049276  0.41284883     0.17800
C1985       C  0.43814837  0.71024127  0.38639045    -0.27500
C1986       C  0.42125154  0.70786786  0.40413591     0.06100
C1987       C  0.41414323  0.69079358  0.40643048     0.25700
C1988       C  0.42365869  0.67640632  0.39003830    -0.12000
C1989       C  0.44037326  0.67879798  0.37080189    -0.25900
C1990       C  0.44768250  0.69590131  0.36992882     0.36500
C1991       C  0.41097947  0.72336011  0.41888445     0.06100
F1992       F  0.39797686  0.68803982  0.42436254    -0.19700
H1993       H  0.41767109  0.66345072  0.39127873     0.15900
F1994       F  0.46385096  0.69893636  0.35230834    -0.23400
H1995       H  0.44379217  0.72333559  0.38416245     0.17700
C1996       C  0.41830158  0.73567040  0.44828252     0.25700
C1997       C  0.40873246  0.75058216  0.46087850    -0.12000
C1998       C  0.39165513  0.75351348  0.44451808    -0.26000
C1999       C  0.38432728  0.74110651  0.41500167     0.36600
C2000       C  0.39396596  0.72619993  0.40236693    -0.27600
F2001       F  0.43459347  0.73309921  0.46549980    -0.19700
H2002       H  0.41468420  0.75974636  0.48394667     0.15900
F2003       F  0.36796567  0.74337951  0.39792721    -0.23500
H2004       H  0.38823094  0.71696390  0.37911186     0.17800
C2005       C  0.37850226  0.67632279  0.14477627    -0.27500
C2006       C  0.38384448  0.65976891  0.12870392     0.06100
C2007       C  0.38101911  0.65546588  0.08411907     0.25700
C2008       C  0.37487310  0.66833282  0.05501029    -0.12000
C2009       C  0.37176178  0.68562136  0.07010146    -0.25900
C2010       C  0.37259008  0.68925878  0.11565029     0.36500
C2011       C  0.39621771  0.64940758  0.15551053     0.06100
F2012       F  0.38587823  0.63942009  0.06806556    -0.19700
H2013       H  0.37415437  0.66521109  0.02007918     0.15900
F2014       F  0.36893668  0.70565408  0.13151526    -0.23400
H2015       H  0.38059048  0.67982240  0.17913401     0.17700
C2016       C  0.41385209  0.64824902  0.14154850     0.25700
C2017       C  0.42682931  0.64299344  0.17105322    -0.12000
C2018       C  0.42243349  0.63867450  0.21467047    -0.26000
C2019       C  0.40466738  0.63844429  0.22779503     0.36600
C2020       C  0.39162528  0.64399804  0.19834665    -0.27600
F2021       F  0.41879631  0.65400945  0.10089253    -0.19700
H2022       H  0.44048584  0.64328801  0.16058413     0.15900
F2023       F  0.40014203  0.63457634  0.27012294    -0.23500
H2024       H  0.37812965  0.64512552  0.20971191     0.17800
C2025       C  0.43511579  0.33600995  0.14102835    -0.27500
C2026       C  0.41797764  0.33798543  0.12452795     0.06100
C2027       C  0.41037551  0.35494574  0.12379823     0.25700
C2028       C  0.41954649  0.36946510  0.14074504    -0.12000
C2029       C  0.43647656  0.36739984  0.15879084    -0.25900
C2030       C  0.44433297  0.35048905  0.15777346     0.36500
C2031       C  0.40786092  0.32216975  0.11048863     0.06100
F2032       F  0.39401046  0.35748425  0.10700407    -0.19700
H2033       H  0.41314282  0.38224080  0.14086526     0.15900
F2034       F  0.46073433  0.34770632  0.17413010    -0.23400
H2035       H  0.44119457  0.32308936  0.14241358     0.17700
C2036       C  0.41544124  0.30924688  0.08284967     0.25700
C2037       C  0.40601821  0.29402538  0.07172360    -0.12000
C2038       C  0.38880290  0.29135632  0.08769344    -0.26000
C2039       C  0.38118992  0.30442813  0.11508869     0.36600
C2040       C  0.39068635  0.31956014  0.12642892    -0.27600
F2041       F  0.43186537  0.31144785  0.06595031    -0.19700
H2042       H  0.41222032  0.28437073  0.05029177     0.15900
F2043       F  0.36460698  0.30265440  0.13131180    -0.23500
H2044       H  0.38467811  0.32914136  0.14841286     0.17800
C2045       C  0.39869239  0.37696023  0.45716862    -0.27500
C2046       C  0.38745362  0.38286340  0.42358018     0.06100
C2047       C  0.36978345  0.37722401  0.42336990     0.25700
C2048       C  0.36381697  0.36511269  0.45504578    -0.12000
C2049       C  0.37553283  0.35827931  0.48644472    -0.25900
C2050       C  0.39286147  0.36471772  0.48814194     0.36500
C2051       C  0.39528475  0.39228307  0.38552214     0.06100
F2052       F  0.35858873  0.38281490  0.39141030    -0.19700
H2053       H  0.35042144  0.36025025  0.45332724     0.15900
F2054       F  0.40439997  0.35853972  0.51869708    -0.23400
H2055       H  0.41240415  0.38091465  0.45764570     0.17700
C2056       C  0.40643263  0.40691080  0.39196623     0.25700
C2057       C  0.41735332  0.41273034  0.35762607    -0.12000
C2058       C  0.41733858  0.40393965  0.31681428    -0.26000
C2059       C  0.40543066  0.39010954  0.30945740     0.36600
C2060       C  0.39437468  0.38444501  0.34347751    -0.27600
F2061       F  0.40755828  0.41479330  0.43222168    -0.19700
H2062       H  0.42667654  0.42326374  0.36383493     0.15900
F2063       F  0.40542517  0.38127599  0.27031812    -0.23500
H2064       H  0.38615113  0.37296693  0.33799847     0.17800
C2065       C  0.46891291  0.50292344  0.28950308    -0.27500
C2066       C  0.45601750  0.51314478  0.26878298     0.06100
C2067       C  0.44360109  0.50499847  0.24122917     0.25700
C2068       C  0.44468681  0.48682333  0.23283367    -0.12000
C2069       C  0.45820727  0.47664013  0.25180968    -0.25900
C2070       C  0.46999299  0.48484325  0.28147564     0.36500
C2071       C  0.45688945  0.53245509  0.27314133     0.06100
F2072       F  0.43107540  0.51476913  0.22068704    -0.19700
H2073       H  0.43545689  0.48089760  0.20998483     0.15900
F2074       F  0.48290783  0.47554764  0.30196392    -0.23400
H2075       H  0.47849347  0.50909497  0.31104079     0.17700
C2076       C  0.44499068  0.54175511  0.30001321     0.25700
C2077       C  0.44739515  0.55983194  0.30754257    -0.12000
C2078       C  0.46174402  0.56880013  0.28844487    -0.26000
C2079       C  0.47319964  0.55944274  0.25999904     0.36600
C2080       C  0.47078882  0.54143372  0.25275571    -0.27600
F2081       F  0.43158043  0.53320107  0.32048682    -0.19700
H2082       H  0.43838463  0.56665235  0.32953362     0.15900
F2083       F  0.48691643  0.56755377  0.23960862    -0.23500
H2084       H  0.48001603  0.53434970  0.23183849     0.17800
C2085       C  0.57694658  0.70816626  0.86649625    -0.27500
C2086       C  0.59114474  0.70600225  0.89545015     0.06100
C2087       C  0.59586177  0.68891668  0.90909214     0.25700
C2088       C  0.58679814  0.67421487  0.89283737    -0.12000
C2089       C  0.57285996  0.67627581  0.86271175    -0.25900
C2090       C  0.56789857  0.69352625  0.85008718     0.36500
C2091       C  0.60110705  0.72164621  0.91054408     0.06100
F2092       F  0.60918228  0.68646303  0.93829585    -0.19700
H2093       H  0.59087013  0.66119006  0.90343655     0.15900
F2094       F  0.55469879  0.69635133  0.82074508    -0.23400
H2095       H  0.57315475  0.72124662  0.85562209     0.17700
C2096       C  0.61934557  0.72279980  0.90349881     0.25700
C2097       C  0.62862310  0.73765786  0.91775224    -0.12000
C2098       C  0.61992891  0.75168982  0.93934242    -0.26000
C2099       C  0.60153607  0.75061942  0.94551785     0.36600
C2100       C  0.59227887  0.73574834  0.93105976    -0.27600
F2101       F  0.62814374  0.70969835  0.88206181    -0.19700
H2102       H  0.64270383  0.73807023  0.91210968     0.15900
F2103       F  0.59243028  0.76383607  0.96563013    -0.23500
H2104       H  0.57817940  0.73512908  0.93636423     0.17800
C2105       C  0.61931409  0.63775045  0.68504497    -0.27500
C2106       C  0.61406049  0.64521480  0.64483612     0.06100
C2107       C  0.59620107  0.64514761  0.63308845     0.25700
C2108       C  0.58359449  0.63946747  0.66336419    -0.12000
C2109       C  0.58866368  0.63363591  0.70549906    -0.25900
C2110       C  0.60669122  0.63174450  0.71515358     0.36500
C2111       C  0.62598937  0.65706563  0.62091297     0.06100
F2112       F  0.59082386  0.65250783  0.59449677    -0.19700
H2113       H  0.56978640  0.64080148  0.65502282     0.15900
F2114       F  0.61206630  0.62596169  0.75535808    -0.23400
H2115       H  0.63305880  0.63790475  0.69453357     0.17700
C2116       C  0.62882064  0.67401834  0.63830080     0.25700
C2117       C  0.63555479  0.68730449  0.61147599    -0.12000
C2118       C  0.63975355  0.68381464  0.56713089    -0.26000
C2119       C  0.63856789  0.66637617  0.55099937     0.36600
C2120       C  0.63143868  0.65312264  0.57771478    -0.27600
F2121       F  0.62334231  0.67816434  0.67983442    -0.19700
H2122       H  0.63645718  0.70060072  0.62458199     0.15900
F2123       F  0.64258369  0.66252415  0.50827918    -0.23500
H2124       H  0.62912336  0.64012573  0.56389124     0.17800
C2125       C  0.42607565  0.68231890  0.86349831    -0.27500
C2126       C  0.44264234  0.68552585  0.88227103     0.06100
C2127       C  0.44423290  0.69821311  0.91586119     0.25700
C2128       C  0.42937337  0.70713505  0.93134296    -0.12000
C2129       C  0.41258779  0.70361823  0.91371582    -0.25900
C2130       C  0.41114396  0.69131165  0.87882278     0.36500
C2131       C  0.45821304  0.67541142  0.86748169     0.06100
F2132       F  0.46005581  0.70141635  0.93505737    -0.19700
H2133       H  0.43101616  0.71650288  0.95816504     0.15900
F2134       F  0.39532891  0.68757504  0.86024863    -0.23400
H2135       H  0.42470138  0.67269407  0.83712962     0.17700
C2136       C  0.45843802  0.65690294  0.86992306     0.25700
C2137       C  0.47339490  0.64749590  0.85669740    -0.12000
C2138       C  0.48833712  0.65635854  0.84047985    -0.26000
C2139       C  0.48807635  0.67496195  0.83849770     0.36600
C2140       C  0.47314487  0.68432343  0.85197513    -0.27600
F2141       F  0.44431860  0.64796530  0.88590129    -0.19700
H2142       H  0.47317503  0.63320867  0.85869773     0.15900
F2143       F  0.50223900  0.68417851  0.82384277    -0.23500
H2144       H  0.47318119  0.69862098  0.85006236     0.17800
C2145       C  0.53952847  0.62130716  0.02913560    -0.27500
C2146       C  0.52384101  0.61328280  0.04275338     0.06100
C2147       C  0.51435942  0.60275598  0.01305218     0.25700
C2148       C  0.52005811  0.60103437  0.96945778    -0.12000
C2149       C  0.53520021  0.60994726  0.95470860    -0.25900
C2150       C  0.54522074  0.61972151  0.98540118     0.36500
C2151       C  0.51666852  0.61706608  0.08684550     0.06100
F2152       F  0.49932275  0.59456625  0.02598631    -0.19700
H2153       H  0.51218414  0.59326980  0.94680437     0.15900
F2154       F  0.55985813  0.62867157  0.97277056    -0.23400
H2155       H  0.54690757  0.62951028  0.05189943     0.17700
C2156       C  0.52585864  0.61213207  0.12496098     0.25700
C2157       C  0.51879935  0.61584057  0.16657615    -0.12000
C2158       C  0.50261996  0.62476875  0.17067298    -0.26000
C2159       C  0.49356537  0.62991184  0.13217060     0.36600
C2160       C  0.50055040  0.62596810  0.09065770    -0.27600
F2161       F  0.54148313  0.60348791  0.12183843    -0.19700
H2162       H  0.52607552  0.61182086  0.19563450     0.15900
F2163       F  0.47785433  0.63845788  0.13444471    -0.23500
H2164       H  0.49343113  0.62996385  0.06130895     0.17800
C2165       C  0.48820395  0.60382258  0.62389446    -0.27500
C2166       C  0.49647977  0.61171134  0.58749650     0.06100
C2167       C  0.51111299  0.62263947  0.59400128     0.25700
C2168       C  0.51752595  0.62550897  0.63631546    -0.12000
C2169       C  0.50946511  0.61758749  0.67311054    -0.25900
C2170       C  0.49471520  0.60661175  0.66660436     0.36500
C2171       C  0.48976757  0.60917762  0.54249935     0.06100
F2172       F  0.51897326  0.63088230  0.55937351    -0.19700
H2173       H  0.52888070  0.63400494  0.64016736     0.15900
F2174       F  0.48639058  0.59891049  0.70130067    -0.23400
H2175       H  0.47678142  0.59549676  0.61913426     0.17700
C2176       C  0.50077242  0.60201548  0.50977026     0.25700
C2177       C  0.49586261  0.60282480  0.46552702    -0.12000
C2178       C  0.47992455  0.61087814  0.45316683    -0.26000
C2179       C  0.46839925  0.61706049  0.48650064     0.36600
C2180       C  0.47334787  0.61615210  0.53087120    -0.27600
F2181       F  0.51664166  0.59497549  0.52055027    -0.19700
H2182       H  0.50490016  0.59771558  0.44085005     0.15900
F2183       F  0.45280960  0.62483416  0.47636415    -0.23500
H2184       H  0.46481360  0.62181018  0.55595130     0.17800
C2185       C  0.45497524  0.38129287  0.67536959    -0.27500
C2186       C  0.45432766  0.36299164  0.68180640     0.06100
C2187       C  0.46901357  0.35427264  0.69956942     0.25700
C2188       C  0.48405740  0.36379275  0.71101910    -0.12000
C2189       C  0.48479915  0.38217830  0.70473903    -0.25900
C2190       C  0.47003574  0.39084736  0.68651106     0.36500
C2191       C  0.43868949  0.35295793  0.66754607     0.06100
F2192       F  0.46870968  0.33656481  0.70636640    -0.19700
H2193       H  0.49511942  0.35671524  0.72498963     0.15900
F2194       F  0.47006673  0.40852284  0.67916146    -0.23400
H2195       H  0.44387648  0.38816132  0.66089518     0.17700
C2196       C  0.42171009  0.35761429  0.68209912     0.25700
C2197       C  0.40699562  0.34864229  0.66581895    -0.12000
C2198       C  0.40900042  0.33491532  0.63480008    -0.26000
C2199       C  0.42612006  0.33010787  0.62102438     0.36600
C2200       C  0.44073916  0.33905815  0.63735848    -0.27600
F2201       F  0.41937908  0.37085748  0.71189296    -0.19700
H2202       H  0.39401069  0.35264841  0.67690403     0.15900
F2203       F  0.42879536  0.31740365  0.58995437    -0.23500
H2204       H  0.45371281  0.33550563  0.62522087     0.17800
C2205       C  0.50384611  0.43519641  0.52672795    -0.27500
C2206       C  0.51560424  0.42992809  0.49351502     0.06100
C2207       C  0.53322851  0.42642641  0.50416032     0.25700
C2208       C  0.53871991  0.42712018  0.54812172    -0.12000
C2209       C  0.52671398  0.43137216  0.58202212    -0.25900
C2210       C  0.50928912  0.43601826  0.57061529     0.36500
C2211       C  0.50903893  0.42673526  0.44856055     0.06100
F2212       F  0.54483530  0.42126636  0.47243789    -0.19700
H2213       H  0.55219819  0.42360756  0.55571659     0.15900
F2214       F  0.49723667  0.44068131  0.60178255    -0.23400
H2215       H  0.49026736  0.43817049  0.51873655     0.17700
C2216       C  0.49554732  0.41442080  0.44152960     0.25700
C2217       C  0.48961196  0.41098833  0.39886752    -0.12000
C2218       C  0.49697341  0.41981641  0.36242859    -0.26000
C2219       C  0.51046933  0.43228404  0.36972721     0.36600
C2220       C  0.51645735  0.43561057  0.41252978    -0.27600
F2221       F  0.48839993  0.40539263  0.47588351    -0.19700
H2222       H  0.47923095  0.40136713  0.39447959     0.15900
F2223       F  0.51791980  0.44130044  0.33578259    -0.23500
H2224       H  0.52683653  0.44518234  0.41764836     0.17800
C2225       C  0.49668740  0.41111945  0.93571251    -0.27500
C2226       C  0.49469875  0.42873573  0.94945786     0.06100
C2227       C  0.50060293  0.44239682  0.92188375     0.25700
C2228       C  0.50791067  0.43843218  0.88063424    -0.12000
C2229       C  0.50971627  0.42080384  0.86665246    -0.25900
C2230       C  0.50417591  0.40713381  0.89473211     0.36500
C2231       C  0.48699548  0.43253143  0.99328651     0.06100
F2232       F  0.49895605  0.45954887  0.93439620    -0.19700
H2233       H  0.51216821  0.44915536  0.85956210     0.15900
F2234       F  0.50542355  0.38996835  0.88203119    -0.23400
H2235       H  0.49249254  0.40041544  0.95691506     0.17700
C2236       C  0.47097607  0.42479955  0.00604585     0.25700
C2237       C  0.46519060  0.42610011  0.04975014    -0.12000
C2238       C  0.47533361  0.43506451  0.08144500    -0.26000
C2239       C  0.49064091  0.44404971  0.06763148     0.36600
C2240       C  0.49640931  0.44269804  0.02392077    -0.27600
F2241       F  0.46124707  0.41545600  0.97656695    -0.19700
H2242       H  0.45328101  0.41922998  0.05920694     0.15900
F2243       F  0.50050978  0.45348609  0.09663612    -0.23500
H2244       H  0.50873251  0.44883056  0.01459523     0.17800
C2245       C  0.56637958  0.50211122  0.72516275    -0.27500
C2246       C  0.55931418  0.50943918  0.76403641     0.06100
C2247       C  0.54979235  0.49867799  0.79327897     0.25700
C2248       C  0.54685825  0.48099325  0.78287195    -0.12000
C2249       C  0.55355409  0.47374494  0.74352115    -0.25900
C2250       C  0.56367740  0.48430083  0.71508249     0.36500
C2251       C  0.55985693  0.52865657  0.77130379     0.06100
F2252       F  0.54237793  0.50553888  0.83045520    -0.19700
H2253       H  0.53898881  0.47302464  0.80508182     0.15900
F2254       F  0.56992092  0.47772110  0.67629284    -0.23400
H2255       H  0.57352647  0.51033986  0.70205655     0.17700
C2256       C  0.56674461  0.53585920  0.81047789     0.25700
C2257       C  0.56479166  0.55388415  0.81939899    -0.12000
C2258       C  0.55561562  0.56474047  0.78979741    -0.26000
C2259       C  0.54946741  0.55765436  0.74973008     0.36600
C2260       C  0.55171869  0.53976131  0.74047957    -0.27600
F2261       F  0.57482647  0.52536051  0.84057292    -0.19700
H2262       H  0.56960377  0.55917015  0.85041482     0.15900
F2263       F  0.54093594  0.56797793  0.72000668    -0.23500
H2264       H  0.54632125  0.53438123  0.71017455     0.17800
C2265       C  0.61305812  0.22482610  0.12536848    -0.27500
C2266       C  0.59614077  0.22198817  0.10843139     0.06100
C2267       C  0.58869451  0.23460941  0.08015039     0.25700
C2268       C  0.59813338  0.24984359  0.06898703    -0.12000
C2269       C  0.61512083  0.25283153  0.08610614    -0.25900
C2270       C  0.62245687  0.24008622  0.11465741     0.36500
C2271       C  0.58598812  0.20645755  0.12336357     0.06100
F2272       F  0.57237985  0.23210023  0.06303459    -0.19700
H2273       H  0.59214640  0.25925780  0.04670142     0.15900
F2274       F  0.63859903  0.24240483  0.13291730    -0.23400
H2275       H  0.61884519  0.21534362  0.14783677     0.17700
C2276       C  0.59184285  0.18922325  0.11429044     0.25700
C2277       C  0.58341090  0.17472438  0.13363683    -0.12000
C2278       C  0.56911751  0.17717108  0.16280964    -0.26000
C2279       C  0.56287677  0.19452164  0.17024935     0.36600
C2280       C  0.57122874  0.20893523  0.15052147    -0.27600
F2281       F  0.60590827  0.18646264  0.08734796    -0.19700
H2282       H  0.58846899  0.16161428  0.12686377     0.15900
F2283       F  0.54902612  0.19772871  0.19758191    -0.23500
H2284       H  0.56660451  0.22215946  0.15793767     0.17800
C2285       C  0.61967861  0.39673468  0.83247569    -0.27500
C2286       C  0.61515245  0.39263032  0.87628255     0.06100
C2287       C  0.59793614  0.39585768  0.89127584     0.25700
C2288       C  0.58504424  0.40142980  0.86177559    -0.12000
C2289       C  0.58914246  0.40405597  0.81702354    -0.25900
C2290       C  0.60678154  0.40268221  0.80299340     0.36500
C2291       C  0.62660301  0.38125667  0.90325311     0.06100
F2292       F  0.59312930  0.39167461  0.93323224    -0.19700
H2293       H  0.57156866  0.40256953  0.87331341     0.15900
F2294       F  0.61120572  0.40529107  0.75999168    -0.23400
H2295       H  0.63287623  0.39414065  0.82042420     0.17700
C2296       C  0.62838039  0.36344247  0.89108606     0.25700
C2297       C  0.63372843  0.35103707  0.92220992    -0.12000
C2298       C  0.63759886  0.35621765  0.96570363    -0.26000
C2299       C  0.63772454  0.37429159  0.97652541     0.36600
C2300       C  0.63201589  0.38673024  0.94547530    -0.27600
F2301       F  0.62298133  0.35774459  0.85072269    -0.19700
H2302       H  0.63374912  0.33718812  0.91311059     0.15900
F2303       F  0.64155274  0.37972775  0.01819661    -0.23500
H2304       H  0.63054828  0.40040956  0.95536022     0.17800
C2305       C  0.58349064  0.35931971  0.17230864    -0.27500
C2306       C  0.56668149  0.35296622  0.16144194     0.06100
C2307       C  0.56519901  0.33767349  0.13543068     0.25700
C2308       C  0.58026059  0.32936304  0.11910567    -0.12000
C2309       C  0.59712724  0.33622547  0.12777281    -0.25900
C2310       C  0.59862182  0.35104919  0.15580509     0.36500
C2311       C  0.55083932  0.36316926  0.17413893     0.06100
F2312       F  0.54918510  0.33143464  0.12319020    -0.19700
H2313       H  0.57858949  0.31795854  0.09785392     0.15900
F2314       F  0.61456813  0.35802021  0.16594333    -0.23400
H2315       H  0.58486789  0.37102434  0.19267669     0.17700
C2316       C  0.53646051  0.35508807  0.19520075     0.25700
C2317       C  0.52151579  0.36498417  0.20601726    -0.12000
C2318       C  0.52060283  0.38310144  0.19605222    -0.26000
C2319       C  0.53500672  0.39110313  0.17451880     0.36600
C2320       C  0.54994173  0.38119684  0.16390390    -0.27600
F2321       F  0.53701356  0.33773861  0.20626893    -0.19700
H2322       H  0.51068728  0.35844035  0.22257828     0.15900
F2323       F  0.53487828  0.40853976  0.16424048    -0.23500
H2324       H  0.56082641  0.38760723  0.14721048     0.17800
C2325       C  0.76936543  0.30307353  0.01205484    -0.27500
C2326       C  0.76246869  0.32021162  0.01288944     0.06100
C2327       C  0.77395335  0.33463564  0.00830495     0.25700
C2328       C  0.79203959  0.33176238  0.00125540    -0.12000
C2329       C  0.79889801  0.31447785  0.99930670    -0.25900
C2330       C  0.78723974  0.30014703  0.00535717     0.36500
C2331       C  0.74321038  0.32236722  0.01829152     0.06100
F2332       F  0.76762309  0.35139662  0.00931444    -0.19700
H2333       H  0.80062632  0.34302970  0.99695648     0.15900
F2334       F  0.79288818  0.28313197  0.00385632    -0.23400
H2335       H  0.76077162  0.29179380  0.01636104     0.17700
C2336       C  0.73176104  0.31290747  0.99054101     0.25700
C2337       C  0.71393349  0.31163228  0.00091658    -0.12000
C2338       C  0.70709534  0.31991858  0.03881355    -0.26000
C2339       C  0.71823594  0.33056795  0.06471421     0.36600
C2340       C  0.73623086  0.33169767  0.05452984    -0.27600
F2341       F  0.73800976  0.30419349  0.95445236    -0.19700
H2342       H  0.70553493  0.30362400  0.98003825     0.15900
F2343       F  0.71205920  0.33870072  0.10168046    -0.23500
H2344       H  0.74487657  0.33895040  0.07643972     0.17800
C2345       C  0.89473862  0.21808280  0.93871187    -0.27500
C2346       C  0.91315928  0.21833327  0.94146131     0.06100
C2347       C  0.92159591  0.23360640  0.95711179     0.25700
C2348       C  0.91169923  0.24840494  0.96947337    -0.12000
C2349       C  0.89321144  0.24830690  0.96620318    -0.25900
C2350       C  0.88481567  0.23285857  0.95081980     0.36500
C2351       C  0.92338081  0.20309010  0.92461137     0.06100
F2352       F  0.93940218  0.23418947  0.96059840    -0.19700
H2353       H  0.91856796  0.25998957  0.98135662     0.15900
F2354       F  0.86703571  0.23196475  0.94691589    -0.23400
H2355       H  0.88802373  0.20654001  0.92600041     0.17700
C2356       C  0.91957523  0.18580274  0.93842564     0.25700
C2357       C  0.92775087  0.17137824  0.91789181    -0.12000
C2358       C  0.93988233  0.17394408  0.88329182    -0.26000
C2359       C  0.94423450  0.19137984  0.87098254     0.36600
C2360       C  0.93601748  0.20572803  0.89147112    -0.27600
F2361       F  0.90778404  0.18287494  0.97139443    -0.19700
H2362       H  0.92431295  0.15818762  0.92852582     0.15900
F2363       F  0.95579266  0.19468480  0.83771385    -0.23500
H2364       H  0.93898508  0.21893385  0.88005314     0.17800
C2365       C  0.87863745  0.36288764  0.14944047    -0.27500
C2366       C  0.88420408  0.37919340  0.13262764     0.06100
C2367       C  0.88140172  0.38311658  0.08782082     0.25700
C2368       C  0.87441580  0.37026989  0.05956807    -0.12000
C2369       C  0.87067017  0.35330565  0.07563753    -0.25900
C2370       C  0.87207196  0.34994691  0.12115768     0.36500
C2371       C  0.89622472  0.38988905  0.15982545     0.06100
F2372       F  0.88666559  0.39882923  0.07089371    -0.19700
H2373       H  0.87349992  0.37304482  0.02452723     0.15900
F2374       F  0.86835642  0.33371631  0.13769269    -0.23400
H2375       H  0.88088414  0.35958681  0.18381031     0.17700
C2376       C  0.89121048  0.39568094  0.20216954     0.25700
C2377       C  0.90401467  0.40108581  0.23243834    -0.12000
C2378       C  0.92194128  0.40031431  0.22105221    -0.26000
C2379       C  0.92678833  0.39589086  0.17750519     0.36600
C2380       C  0.91396929  0.39085043  0.14707965    -0.27600
F2381       F  0.87410883  0.39489803  0.21512976    -0.19700
H2382       H  0.90002563  0.40450321  0.26578898     0.15900
F2383       F  0.94398454  0.39549534  0.16509771    -0.23500
H2384       H  0.91807089  0.38626784  0.11468270     0.17800
C2385       C  0.97173526  0.34834140  0.85366013    -0.27500
C2386       C  0.95582777  0.35711882  0.86315806     0.06100
C2387       C  0.95543279  0.37567304  0.86104706     0.25700
C2388       C  0.97049090  0.38511954  0.84900667    -0.12000
C2389       C  0.98641748  0.37639234  0.83929637    -0.25900
C2390       C  0.98688323  0.35780063  0.84199337     0.36500
C2391       C  0.94017588  0.34702487  0.87868936     0.06100
F2392       F  0.94070428  0.38479556  0.87247464    -0.19700
H2393       H  0.96965858  0.39938209  0.84764623     0.15900
F2394       F  0.00199512  0.34870373  0.83416782    -0.23400
H2395       H  0.97246735  0.33408028  0.85551717     0.17700
C2396       C  0.92311558  0.35056088  0.86269668     0.25700
C2397       C  0.90838704  0.34247458  0.88196538    -0.12000
C2398       C  0.91037194  0.33045319  0.91697125    -0.26000
C2399       C  0.92761397  0.32593162  0.93045685     0.36600
C2400       C  0.94222390  0.33423604  0.91172215    -0.27600
F2401       F  0.92065684  0.36188548  0.82855860    -0.19700
H2402       H  0.89539867  0.34594581  0.87007478     0.15900
F2403       F  0.93050089  0.31391069  0.96287900    -0.23500
H2404       H  0.95518768  0.33110853  0.92438095     0.17800
C2405       C  0.66709853  0.28687713  0.37487425    -0.27500
C2406       C  0.66107209  0.27777286  0.33751907     0.06100
C2407       C  0.65242288  0.26152881  0.34254022     0.25700
C2408       C  0.64957657  0.25465998  0.38460497    -0.12000
C2409       C  0.65547546  0.26378363  0.42221224    -0.25900
C2410       C  0.66445255  0.27990872  0.41702390     0.36500
C2411       C  0.66355693  0.28528730  0.29324663     0.06100
F2412       F  0.64629146  0.25256742  0.30681747    -0.19700
H2413       H  0.64270256  0.24220551  0.38777204     0.15900
F2414       F  0.67014729  0.28923066  0.45260439    -0.23400
H2415       H  0.67382653  0.29939230  0.37131045     0.17700
C2416       C  0.65607498  0.30163934  0.28216021     0.25700
C2417       C  0.65683657  0.30764555  0.23859774    -0.12000
C2418       C  0.66504085  0.29738922  0.20562019    -0.26000
C2419       C  0.67343070  0.28147574  0.21766035     0.36600
C2420       C  0.67258550  0.27551080  0.26108358    -0.27600
F2421       F  0.64711121  0.31124035  0.31281430    -0.19700
H2422       H  0.65023880  0.31988279  0.23033854     0.15900
F2423       F  0.68197705  0.27132160  0.18736324    -0.23500
H2424       H  0.67861796  0.26299014  0.26947432     0.17800
C2425       C  0.66646023  0.25498463  0.87498001    -0.27500
C2426       C  0.65905307  0.26326661  0.83819016     0.06100
C2427       C  0.64830053  0.27817744  0.84376032     0.25700
C2428       C  0.64508051  0.28479695  0.88595785    -0.12000
C2429       C  0.65260448  0.27666882  0.92310883    -0.25900
C2430       C  0.66338897  0.26166332  0.91726091     0.36500
C2431       C  0.66211762  0.25608253  0.79393403     0.06100
F2432       F  0.64064007  0.28608025  0.80842331    -0.19700
H2433       H  0.63672944  0.29633154  0.88949354     0.15900
F2434       F  0.67071528  0.25323365  0.95225491    -0.23400
H2435       H  0.67467088  0.24337771  0.87083893     0.17700
C2436       C  0.67060856  0.26629528  0.76184029     0.25700
C2437       C  0.67154888  0.26029028  0.71840118    -0.12000
C2438       C  0.66391511  0.24406629  0.70636965    -0.26000
C2439       C  0.65624578  0.23342253  0.73937102     0.36600
C2440       C  0.65543363  0.23944646  0.78290378    -0.27600
F2441       F  0.67754823  0.28226788  0.77238947    -0.19700
H2442       H  0.67773625  0.26866072  0.69390027     0.15900
F2443       F  0.64864791  0.21770136  0.72939633    -0.23500
H2444       H  0.64885966  0.23149395  0.80766973     0.17800
C2445       C  0.59784400  0.14472996  0.39645359    -0.27500
C2446       C  0.61512554  0.14707808  0.38094718     0.06100
C2447       C  0.61926825  0.14232448  0.33717199     0.25700
C2448       C  0.60592173  0.13685030  0.30844362    -0.12000
C2449       C  0.58834247  0.13629401  0.32300513    -0.25900
C2450       C  0.58452820  0.13947554  0.36776605     0.36500
C2451       C  0.62738650  0.15744262  0.40855133     0.06100
F2452       F  0.63595432  0.14401215  0.32157691    -0.19700
H2453       H  0.60912792  0.13435595  0.27406879     0.15900
F2454       F  0.56775348  0.13848836  0.38319932    -0.23400
H2455       H  0.59434079  0.14833111  0.43003769     0.17700
C2456       C  0.63361238  0.17379771  0.39301513     0.25700
C2457       C  0.63958936  0.18648946  0.42288834    -0.12000
C2458       C  0.63969805  0.18295299  0.46832275    -0.26000
C2459       C  0.63537351  0.16597849  0.48338273     0.36600
C2460       C  0.62921864  0.15331613  0.45356419    -0.27600
F2461       F  0.63188878  0.17836872  0.34987235    -0.19700
H2462       H  0.64290302  0.19954432  0.41089619     0.15900
F2463       F  0.63500715  0.16235470  0.52732011    -0.23500
H2464       H  0.62439579  0.14083945  0.46613574     0.17800
C2465       C  0.58296350  0.17771234  0.65202676    -0.27500
C2466       C  0.56689159  0.18682785  0.65215758     0.06100
C2467       C  0.56639861  0.20454208  0.63873420     0.25700
C2468       C  0.58168795  0.21270669  0.62324138    -0.12000
C2469       C  0.59773280  0.20342654  0.62163626    -0.25900
C2470       C  0.59832227  0.18592935  0.63727401     0.36500
C2471       C  0.55064398  0.17757032  0.66515774     0.06100
F2472       F  0.55099391  0.21365724  0.63873288    -0.19700
H2473       H  0.58089996  0.22620452  0.61154909     0.15900
F2474       F  0.61348366  0.17641698  0.63605688    -0.23400
H2475       H  0.58353044  0.16406855  0.66273103     0.17700
C2476       C  0.54487269  0.16276986  0.64121219     0.25700
C2477       C  0.52987454  0.15359165  0.65477151    -0.12000
C2478       C  0.52037084  0.15903992  0.69236551    -0.26000
C2479       C  0.52609221  0.17408272  0.71588931     0.36600
C2480       C  0.54107011  0.18325448  0.70217058    -0.27600
F2481       F  0.55368851  0.15730991  0.60452122    -0.19700
H2482       H  0.52571412  0.14216413  0.63584723     0.15900
F2483       F  0.51765251  0.17957705  0.75308839    -0.23500
H2484       H  0.54546770  0.19459912  0.72108605     0.17800
C2485       C  0.61247856  0.31499983  0.62375349    -0.27500
C2486       C  0.59484823  0.31673081  0.61069265     0.06100
C2487       C  0.58724011  0.30334138  0.58475691     0.25700
C2488       C  0.59720450  0.28856622  0.57210362    -0.12000
C2489       C  0.61495238  0.28686140  0.58492957    -0.25900
C2490       C  0.62244152  0.30029642  0.61122714     0.36500
C2491       C  0.58476064  0.33263083  0.62453045     0.06100
F2492       F  0.57035833  0.30477421  0.57056030    -0.19700
H2493       H  0.59104806  0.27856051  0.55173569     0.15900
F2494       F  0.63939338  0.29931796  0.62514146    -0.23400
H2495       H  0.61854909  0.32506718  0.64412228     0.17700
C2496       C  0.56865126  0.33117065  0.64722904     0.25700
C2497       C  0.56040344  0.34624285  0.66445818    -0.12000
C2498       C  0.56801253  0.36306091  0.65947283    -0.26000
C2499       C  0.58382057  0.36452856  0.63520772     0.36600
C2500       C  0.59204148  0.34945677  0.61809329    -0.27600
F2501       F  0.56141528  0.31510666  0.65510011    -0.19700
H2502       H  0.54827318  0.34465485  0.68299401     0.15900
F2503       F  0.59190502  0.38035900  0.62996456    -0.23500
H2504       H  0.60444860  0.35087879  0.60063140     0.17800
C2505       C  0.86434603  0.26326330  0.19654382    -0.27500
C2506       C  0.84709019  0.25905544  0.20905139     0.06100
C2507       C  0.83309957  0.26240396  0.18012823     0.25700
C2508       C  0.83646926  0.26952594  0.13855225    -0.12000
C2509       C  0.85379769  0.27354433  0.12567096    -0.25900
C2510       C  0.86774480  0.27045063  0.15519808     0.36500
C2511       C  0.84397433  0.25139236  0.25273243     0.06100
F2512       F  0.81629786  0.25839266  0.19170034    -0.19700
H2513       H  0.82553065  0.27185235  0.11638751     0.15900
F2514       F  0.88470802  0.27382858  0.14377176    -0.23400
H2515       H  0.87522097  0.26093697  0.21892504     0.17700
C2516       C  0.85329596  0.23629874  0.26579984     0.25700
C2517       C  0.85223443  0.23050023  0.30924530    -0.12000
C2518       C  0.84202309  0.23979918  0.34035406    -0.26000
C2519       C  0.83184255  0.25431424  0.32646550     0.36600
C2520       C  0.83283885  0.26002687  0.28279960    -0.27600
F2521       F  0.86391231  0.22755600  0.23689342    -0.19700
H2522       H  0.86016718  0.21927534  0.31896802     0.15900
F2523       F  0.82145077  0.26337826  0.35524892    -0.23500
H2524       H  0.82559136  0.27169695  0.27298412     0.17800
C2525       C  0.83673140  0.27803465  0.67362729    -0.27500
C2526       C  0.84783189  0.27317625  0.70832890     0.06100
C2527       C  0.86228272  0.26207041  0.70030460     0.25700
C2528       C  0.86555056  0.25581665  0.65782478    -0.12000
C2529       C  0.85441983  0.26050222  0.62269811    -0.25900
C2530       C  0.83989118  0.27169558  0.63102026     0.36500
C2531       C  0.84424602  0.27931548  0.75332881     0.06100
F2532       F  0.87333951  0.25744911  0.73356793    -0.19700
H2533       H  0.87683731  0.24730869  0.65253178     0.15900
F2534       F  0.82858473  0.27636398  0.59837189    -0.23400
H2535       H  0.82547762  0.28650729  0.67974344     0.17700
C2536       C  0.84547444  0.29726507  0.76425940     0.25700
C2537       C  0.84470745  0.30250396  0.80848814    -0.12000
C2538       C  0.84261722  0.28986652  0.84208651    -0.26000
C2539       C  0.84009464  0.27199067  0.83031429     0.36600
C2540       C  0.84101966  0.26684252  0.78628171    -0.27600
F2541       F  0.84851050  0.30952494  0.73249666    -0.19700
H2542       H  0.84650043  0.31632855  0.81646724     0.15900
F2543       F  0.83753912  0.25926462  0.86120494    -0.23500
H2544       H  0.83982452  0.25297538  0.77792085     0.17800
C2545       C  0.77117728  0.20597807  0.48710631    -0.27500
C2546       C  0.76390873  0.21397559  0.52486467     0.06100
C2547       C  0.77488139  0.22320766  0.55413101     0.25700
C2548       C  0.79270658  0.22529046  0.54427322    -0.12000
C2549       C  0.79990007  0.21795067  0.50551540    -0.25900
C2550       C  0.78911045  0.20777774  0.47761478     0.36500
C2551       C  0.74467684  0.21468736  0.53085953     0.06100
F2552       F  0.76811883  0.23119477  0.59067730    -0.19700
H2553       H  0.80081687  0.23308246  0.56634574     0.15900
F2554       F  0.79559071  0.20064523  0.43969108    -0.23400
H2555       H  0.76280498  0.19889612  0.46418373     0.17700
C2556       C  0.73435689  0.22415012  0.50059567     0.25700
C2557       C  0.71653881  0.22705782  0.50916202    -0.12000
C2558       C  0.70868377  0.22027745  0.54753269    -0.26000
C2559       C  0.71883481  0.21013126  0.57691038     0.36600
C2560       C  0.73679458  0.20754192  0.56877810    -0.27600
F2561       F  0.74174583  0.23139033  0.46397870    -0.19700
H2562       H  0.70889968  0.23486146  0.48611911     0.15900
F2563       F  0.71165093  0.20364587  0.61465595    -0.23500
H2564       H  0.74466438  0.20034180  0.59253703     0.17800
C2565       C  0.87754774  0.15066262  0.59198198    -0.27500
C2566       C  0.88174104  0.15548700  0.63549155     0.06100
C2567       C  0.87846271  0.17279976  0.65013038     0.25700
C2568       C  0.87276285  0.18553002  0.62032276    -0.12000
C2569       C  0.86996017  0.18105947  0.57594081    -0.25900
C2570       C  0.87141642  0.16336668  0.56232277     0.36500
C2571       C  0.89367746  0.14445084  0.66161712     0.06100
F2572       F  0.88281252  0.17786558  0.69180202    -0.19700
H2573       H  0.87163814  0.19914032  0.63119661     0.15900
F2574       F  0.86882864  0.15878628  0.51940481    -0.23400
H2575       H  0.88031200  0.13741605  0.58020722     0.17700
C2576       C  0.88900098  0.13874757  0.70414112     0.25700
C2577       C  0.90208519  0.13331541  0.73355792    -0.12000
C2578       C  0.91988425  0.13400629  0.72095957    -0.26000
C2579       C  0.92433152  0.13829341  0.67718702     0.36600
C2580       C  0.91124999  0.14331552  0.64765555    -0.27600
F2581       F  0.87203591  0.13976866  0.71813378    -0.19700
H2582       H  0.89844531  0.12998590  0.76717857     0.15900
F2583       F  0.94140767  0.13865471  0.66377790    -0.23500
H2584       H  0.91503251  0.14784604  0.61501807     0.17800
C2585       C  0.92304334  0.17906089  0.37080087    -0.27500
C2586       C  0.93979419  0.18634979  0.37754124     0.06100
C2587       C  0.94135028  0.20223837  0.40110266     0.25700
C2588       C  0.92644968  0.21013049  0.41988354    -0.12000
C2589       C  0.90969295  0.20237461  0.41534316    -0.25900
C2590       C  0.90807707  0.18701649  0.38915733     0.36500
C2591       C  0.95566267  0.17649074  0.36348558     0.06100
F2592       F  0.95740641  0.20954229  0.40825008    -0.19700
H2593       H  0.92817987  0.22201428  0.43936692     0.15900
F2594       F  0.89219985  0.17925887  0.38251798    -0.23400
H2595       H  0.92163735  0.16688918  0.35225754     0.17700
C2596       C  0.95899084  0.15968232  0.38099034     0.25700
C2597       C  0.97402614  0.15031946  0.36838774    -0.12000
C2598       C  0.98608947  0.15748361  0.33798146    -0.26000
C2599       C  0.98278313  0.17445709  0.32067252     0.36600
C2600       C  0.96770868  0.18387075  0.33357360    -0.27600
F2601       F  0.94783316  0.15245996  0.41103702    -0.19700
H2602       H  0.97621864  0.13739506  0.38261490     0.15900
F2603       F  0.99380915  0.18180224  0.29053027    -0.23500
H2604       H  0.96530000  0.19683909  0.31981233     0.17800
C2605       C  0.91472654  0.34822987  0.43092902    -0.27500
C2606       C  0.92097329  0.33116154  0.42152506     0.06100
C2607       C  0.93621797  0.32917041  0.39566159     0.25700
C2608       C  0.94468357  0.34397548  0.37839459    -0.12000
C2609       C  0.93812338  0.36112183  0.38623233    -0.25900
C2610       C  0.92321978  0.36311096  0.41372829     0.36500
C2611       C  0.91082231  0.31549802  0.43581365     0.06100
F2612       F  0.94235470  0.31286475  0.38488599    -0.19700
H2613       H  0.95610307  0.34188851  0.35746931     0.15900
F2614       F  0.91647466  0.37931549  0.42295732    -0.23400
H2615       H  0.90301323  0.35000286  0.45101078     0.17700
C2616       C  0.91882791  0.30171318  0.45942960     0.25700
C2617       C  0.90914863  0.28670224  0.47083151    -0.12000
C2618       C  0.89130296  0.28510126  0.45891186    -0.26000
C2619       C  0.88332153  0.29904664  0.43542219     0.36600
C2620       C  0.89301634  0.31405225  0.42422707    -0.27600
F2621       F  0.93592465  0.30288356  0.47208553    -0.19700
H2622       H  0.91567890  0.27633006  0.48918998     0.15900
F2623       F  0.86615443  0.29830445  0.42319774    -0.23500
H2624       H  0.88665709  0.32450181  0.40573462     0.17800
loop_ 
_geom_bond_atom_site_label_1 
_geom_bond_atom_site_label_2 
_geom_bond_distance 
_geom_bond_site_symmetry_2 
_ccdc_geom_bond_type 
Fe1          O17   2.059       .  S
Fe1           O7   2.060       .  S
Fe1          O14   2.054       .  S
Fe1           O6   2.047       .  S
Fe1          O12   1.962       .  S
Fe2           O5   2.053       .  S
Fe2           O9   2.072       .  S
Fe2          O13   2.045       .  S
Fe2          O18   2.064       .  S
Fe2          O12   1.956       .  S
Fe3          O21   2.079       .  S
Fe3           O8   2.048       .  S
Fe3          O15   2.036       .  S
Fe3           O4   2.078       .  S
Fe3          O12   1.971       .  S
O4           C11   1.270       .  A
O5           C19   1.267       .  A
O6           C11   1.266       .  A
O7           C10   1.269       .  A
O8           C20   1.266       .  A
O9           C22   1.271       .  A
C10          O15   1.266       .  A
C10        C2518   1.468       .  S
C11        C2549   1.473       .  S
O13          C16   1.266       .  A
O14          C16   1.266       .  A
C16        C2529   1.474       .  S
O17          C22   1.269       .  A
O18          C20   1.271       .  A
C19          O21   1.271       .  A
C19        C2589   1.487       .  S
C20        C2569   1.462       .  S
C22        C2618   1.487       .  S
Fe23         O39   2.062       .  S
Fe23         O29   2.051       .  S
Fe23         O36   2.052       .  S
Fe23         O28   2.053       .  S
Fe23         O34   1.974       .  S
Fe24         O27   2.054       .  S
Fe24         O31   2.072       .  S
Fe24         O35   2.050       .  S
Fe24         O40   2.061       .  S
Fe24         O34   1.970       .  S
Fe25         O43   2.063       .  S
Fe25         O30   2.058       .  S
Fe25         O37   2.050       .  S
Fe25         O26   2.066       .  S
Fe25         O34   1.985       .  S
O26          C33   1.267       .  A
O27          C41   1.266       .  A
O28          C33   1.267       .  A
O29          C32   1.267       .  A
O30          C42   1.268       .  A
O31          C44   1.270       .  A
C32          O37   1.267       .  A
C32        C2438   1.473       .  S
C33        C2558   1.470       .  S
O35          C38   1.266       .  A
O36          C38   1.265       .  A
C38        C2409   1.471       .  S
O39          C44   1.269       .  A
O40          C42   1.270       .  A
C41          O43   1.267       .  A
C41        C2469   1.477       .  S
C42        C2458   1.466       .  S
C44        C2489   1.489       .  S
Fe45         O61   2.042   1_556  S
Fe45         O51   2.036       .  S
Fe45         O58   2.058       .  S
Fe45         O50   2.032       .  S
Fe45         O56   1.971       .  S
Fe46         O49   2.049       .  S
Fe46         O53   2.048       .  S
Fe46         O57   2.061   1_554  S
Fe46         O62   2.045   1_554  S
Fe46         O56   1.970   1_554  S
Fe47         O65   2.070   1_556  S
Fe47         O52   2.088       .  S
Fe47         O59   2.090       .  S
Fe47         O48   2.067       .  S
Fe47         O56   1.989       .  S
O48          C55   1.271       .  A
O49          C63   1.268       .  A
O50          C55   1.264       .  A
O51          C54   1.263       .  A
O52          C64   1.273       .  A
O53          C66   1.265       .  A
C54          O59   1.272       .  A
C54        C2329   1.488       .  S
C55        C2538   1.475       .  S
O57          C60   1.268       .  A
O58          C60   1.266       .  A
C60        C2349   1.485       .  S
O61          C66   1.264       .  A
O62          C64   1.265       .  A
C63          O65   1.270       .  A
C63        C2369   1.469       .  S
C64        C2398   1.491       .  S
C66        C2509   1.467       .  S
Fe67         O83   2.049   1_554  S
Fe67         O73   2.047       .  S
Fe67         O80   2.061       .  S
Fe67         O72   2.048       .  S
Fe67         O78   1.965       .  S
Fe68         O71   2.059   1_554  S
Fe68         O75   2.044   1_554  S
Fe68         O79   2.074       .  S
Fe68         O84   2.045       .  S
Fe68         O78   1.964       .  S
Fe69         O87   2.068       .  S
Fe69         O74   2.075       .  S
Fe69         O81   2.080       .  S
Fe69         O70   2.061       .  S
Fe69         O78   1.985       .  S
O70          C77   1.269       .  A
O71          C85   1.270   1_556  A
O72          C77   1.267       .  A
O73          C76   1.266       .  A
O74          C86   1.270       .  A
O75          C88   1.265       .  A
C76          O81   1.270       .  A
C76        C2338   1.476       .  S
C77        C2418   1.476       .  S
O79          C82   1.271       .  A
O80          C82   1.269       .  A
C82        C2269   1.489       .  S
O83          C88   1.265       .  A
O84          C86   1.266       .  A
C85          O87   1.269       .  A
C85        C2298   1.473   1_554  S
C86        C2309   1.483       .  S
C88        C2429   1.470       .  S
Fe89        O105   2.044       .  S
Fe89         O95   2.042       .  S
Fe89        O102   2.058       .  S
Fe89         O94   2.047       .  S
Fe89        O100   1.974       .  S
Fe90         O93   2.056       .  S
Fe90         O97   2.063       .  S
Fe90        O101   2.063       .  S
Fe90        O106   2.062       .  S
Fe90        O100   1.973       .  S
Fe91        O109   2.069       .  S
Fe91         O96   2.066       .  S
Fe91        O103   2.067       .  S
Fe91         O92   2.064       .  S
Fe91        O100   1.987       .  S
O92          C99   1.270       .  A
O93         C107   1.271       .  A
O94          C99   1.266       .  A
O95          C98   1.263       .  A
O96         C108   1.268       .  A
O97         C110   1.267       .  A
C98         O103   1.267       .  A
C98        C2249   1.467       .  S
C99        C2209   1.479       .  S
O101        C104   1.270       .  A
O102        C104   1.268       .  A
C104       C2189   1.483       .  S
O105        C110   1.263       .  A
O106        C108   1.267       .  A
C107        O109   1.271       .  A
C107       C2289   1.473       .  S
C108       C2498   1.487       .  S
C110       C2229   1.472       .  S
Fe111       O127   2.066       .  S
Fe111       O117   2.043       .  S
Fe111       O124   2.059       .  S
Fe111       O116   2.064       .  S
Fe111       O122   1.972       .  S
Fe112       O115   2.060       .  S
Fe112       O119   2.036       .  S
Fe112       O123   2.063       .  S
Fe112       O128   2.046       .  S
Fe112       O122   1.959       .  S
Fe113       O131   2.060       .  S
Fe113       O118   2.076       .  S
Fe113       O125   2.073       .  S
Fe113       O114   2.051       .  S
Fe113       O122   1.979       .  S
O114        C121   1.269       .  A
O115        C129   1.271       .  A
O116        C121   1.271       .  A
O117        C120   1.264       .  A
O118        C130   1.269       .  A
O119        C132   1.264       .  A
C120        O125   1.268       .  A
C120       C2258   1.467       .  S
C121       C2149   1.477       .  S
O123        C126   1.269       .  A
O124        C126   1.269       .  A
C126       C2138   1.482       .  S
O127        C132   1.267       .  A
O128        C130   1.264       .  A
C129        O131   1.270       .  A
C129       C2109   1.473       .  S
C130       C2089   1.485       .  S
C132       C2169   1.474       .  S
Fe133       O149   2.049       .  S
Fe133       O139   2.062       .  S
Fe133       O146   2.067       .  S
Fe133       O138   2.035       .  S
Fe133       O144   1.954       .  S
Fe134       O137   2.044       .  S
Fe134       O141   2.072       .  S
Fe134       O145   2.048       .  S
Fe134       O150   2.067       .  S
Fe134       O144   1.951       .  S
Fe135       O153   2.096       .  S
Fe135       O140   2.065       .  S
Fe135       O147   2.059       .  S
Fe135       O136   2.091       .  S
Fe135       O144   1.961       .  S
O136        C143   1.273       .  A
O137        C151   1.268       .  A
O138        C143   1.264       .  A
O139        C142   1.269       .  A
O140        C152   1.267       .  A
O141        C154   1.269       .  A
C142        O147   1.271       .  A
C142       C2238   1.478       .  S
C143       C2069   1.482       .  S
O145        C148   1.269       .  A
O146        C148   1.270       .  A
C148       C2218   1.478       .  S
O149        C154   1.265       .  A
O150        C152   1.269       .  A
C151        O153   1.277       .  A
C151       C2029   1.487       .  S
C152       C2058   1.464       .  S
C154       C2318   1.482       .  S
Fe155       O171   2.054       .  S
Fe155       O161   2.066       .  S
Fe155       O168   2.066       .  S
Fe155       O160   2.045       .  S
Fe155       O166   1.959       .  S
Fe156       O159   2.048       .  S
Fe156       O163   2.071       .  S
Fe156       O167   2.045       .  S
Fe156       O172   2.060       .  S
Fe156       O166   1.958       .  S
Fe157       O175   2.073       .  S
Fe157       O162   2.051       .  S
Fe157       O169   2.048       .  S
Fe157       O158   2.076       .  S
Fe157       O166   1.971       .  S
O158        C165   1.270       .  A
O159        C173   1.267       .  A
O160        C165   1.266       .  A
O161        C164   1.271       .  A
O162        C174   1.266       .  A
O163        C176   1.269       .  A
C164        O169   1.267       .  A
C164       C2178   1.478       .  S
C165       C2078   1.481       .  S
O167        C170   1.266       .  A
O168        C170   1.269       .  A
C170       C2158   1.474       .  S
O171        C176   1.268       .  A
O172        C174   1.270       .  A
C173        O175   1.271       .  A
C173       C1989   1.480       .  S
C174       C2018   1.463       .  S
C176       C1969   1.484       .  S
Fe177       O193   2.083       .  S
Fe177       O183   2.051       .  S
Fe177       O190   2.054   1_556  S
Fe177       O182   2.053       .  S
Fe177       O188   1.966       .  S
Fe178       O181   2.054   1_554  S
Fe178       O185   2.066   1_554  S
Fe178       O189   2.062       .  S
Fe178       O194   2.056       .  S
Fe178       O188   1.960   1_554  S
Fe179       O197   2.065       .  S
Fe179       O184   2.067   1_556  S
Fe179       O191   2.066       .  S
Fe179       O180   2.064       .  S
Fe179       O188   1.983       .  S
O180        C187   1.267       .  A
O181        C195   1.266       .  A
O182        C187   1.268       .  A
O183        C186   1.269       .  A
O184        C196   1.271       .  A
O185        C198   1.270       .  A
C186        O191   1.270       .  A
C186       C1918   1.477       .  S
C187       C1949   1.474       .  S
O189        C192   1.266       .  A
O190        C192   1.265       .  A
C192       C1929   1.483       .  S
O193        C198   1.273       .  A
O194        C196   1.271       .  A
C195        O197   1.267       .  A
C195       C2129   1.484       .  S
C196       C2009   1.470       .  S
C198       C1889   1.478       .  S
Fe199       O215   2.056       .  S
Fe199       O205   2.046       .  S
Fe199       O212   2.046   1_554  S
Fe199       O204   2.044       .  S
Fe199       O210   1.975       .  S
Fe200       O203   2.053       .  S
Fe200       O207   2.057       .  S
Fe200       O211   2.054   1_554  S
Fe200       O216   2.052   1_554  S
Fe200       O210   1.973       .  S
Fe201       O219   2.065       .  S
Fe201       O206   2.059       .  S
Fe201       O213   2.059       .  S
Fe201       O202   2.068       .  S
Fe201       O210   1.984       .  S
O202        C209   1.268       .  A
O203        C217   1.268       .  A
O204        C209   1.266       .  A
O205        C208   1.266       .  A
O206        C218   1.267   1_554  A
O207        C220   1.266       .  A
C208        O213   1.268       .  A
C208       C1869   1.476       .  S
C209       C1958   1.480       .  S
O211        C214   1.267       .  A
O212        C214   1.265       .  A
C214       C1849   1.470       .  S
O215        C220   1.267       .  A
O216        C218   1.268       .  A
C217        O219   1.269       .  A
C217       C1829   1.483       .  S
C218       C1818   1.475       .  S
C220       C1789   1.482       .  S
Fe221       O237   2.066       .  S
Fe221       O227   2.044       .  S
Fe221       O234   2.055       .  S
Fe221       O226   2.062       .  S
Fe221       O232   1.977       .  S
Fe222       O225   2.052       .  S
Fe222       O229   2.048       .  S
Fe222       O233   2.058       .  S
Fe222       O238   2.059       .  S
Fe222       O232   1.966       .  S
Fe223       O241   2.079       .  S
Fe223       O228   2.077       .  S
Fe223       O235   2.081       .  S
Fe223       O224   2.066       .  S
Fe223       O232   1.983       .  S
O224        C231   1.271       .  A
O225        C239   1.268       .  A
O226        C231   1.270       .  A
O227        C230   1.265       .  A
O228        C240   1.270       .  A
O229        C242   1.266       .  A
C230        O235   1.270       .  A
C230       C1778   1.471       .  S
C231       C1938   1.480       .  S
O233        C236   1.268       .  A
O234        C236   1.267       .  A
C236       C1998   1.480       .  S
O237        C242   1.267       .  A
O238        C240   1.268       .  A
C239        O241   1.272       .  A
C239       C1738   1.475       .  S
C240       C1749   1.491       .  S
C242       C1909   1.474       .  S
Fe243       O259   2.050       .  S
Fe243       O249   2.057       .  S
Fe243       O256   2.077       .  S
Fe243       O248   2.052       .  S
Fe243       O254   1.976       .  S
Fe244       O247   2.059       .  S
Fe244       O251   2.056       .  S
Fe244       O255   2.058       .  S
Fe244       O260   2.066       .  S
Fe244       O254   1.969       .  S
Fe245       O263   2.059       .  S
Fe245       O250   2.070       .  S
Fe245       O257   2.063       .  S
Fe245       O246   2.053       .  S
Fe245       O254   1.978       .  S
O246        C253   1.267       .  A
O247        C261   1.270       .  A
O248        C253   1.268       .  A
O249        C252   1.267       .  A
O250        C262   1.270       .  A
O251        C264   1.267       .  A
C252        O257   1.268       .  A
C252       C1769   1.471       .  S
C253       C1858   1.474       .  S
O255        C258   1.270       .  A
O256        C258   1.272       .  A
C258       C1718   1.488       .  S
O259        C264   1.264       .  A
O260        C262   1.269       .  A
C261        O263   1.268       .  A
C261       C1678   1.478       .  S
C262       C1698   1.491       .  S
C264       C1878   1.470       .  S
Fe265       O281   2.078       .  S
Fe265       O271   2.053       .  S
Fe265       O278   2.066       .  S
Fe265       O270   2.070       .  S
Fe265       O276   1.969       .  S
Fe266       O269   2.065       .  S
Fe266       O273   2.065       .  S
Fe266       O277   2.058       .  S
Fe266       O282   2.062       .  S
Fe266       O276   1.964       .  S
Fe267       O285   2.059       .  S
Fe267       O272   2.058       .  S
Fe267       O279   2.064       .  S
Fe267       O268   2.060       .  S
Fe267       O276   1.973       .  S
O268        C275   1.267       .  A
O269        C283   1.268       .  A
O270        C275   1.270       .  A
O271        C274   1.269       .  A
O272        C284   1.268       .  A
O273        C286   1.270       .  A
C274        O279   1.268       .  A
C274       C1578   1.477       .  S
C275       C1609   1.477       .  S
O277        C280   1.267       .  A
O278        C280   1.268       .  A
C280       C1589   1.483       .  S
O281        C286   1.273       .  A
O282        C284   1.271       .  A
C283        O285   1.268       .  A
C283       C1629   1.482       .  S
C284       C1658   1.473       .  S
C286       C2389   1.490   1_455  S
Fe287       O303   2.084       .  S
Fe287       O293   2.031       .  S
Fe287       O300   2.044       .  S
Fe287       O292   2.064       .  S
Fe287       O298   1.955       .  S
Fe288       O291   2.066       .  S
Fe288       O295   2.059       .  S
Fe288       O299   2.066       .  S
Fe288       O304   2.053       .  S
Fe288       O298   1.952       .  S
Fe289       O307   2.067       .  S
Fe289       O294   2.073       .  S
Fe289       O301   2.086       .  S
Fe289       O290   2.069       .  S
Fe289       O298   1.965       .  S
O290        C297   1.267       .  A
O291        C305   1.269       .  A
O292        C297   1.268       .  A
O293        C296   1.267       .  A
O294        C306   1.272       .  A
O295        C308   1.269       .  A
C296        O301   1.274       .  A
C296       C1538   1.472       .  S
C297       C1618   1.477       .  S
O299        C302   1.269       .  A
O300        C302   1.265       .  A
C302       C1549   1.466       .  S
O303        C308   1.272       .  A
O304        C306   1.269       .  A
C305        O307   1.270       .  A
C305       C1709   1.485       .  S
C306       C1809   1.475       .  S
C308       C1518   1.491   1_455  S
Fe309       O325   2.070       .  S
Fe309       O315   2.041       .  S
Fe309       O322   2.055   1_655  S
Fe309       O314   2.064       .  S
Fe309       O320   1.973       .  S
Fe310       O313   2.059       .  S
Fe310       O317   2.042       .  S
Fe310       O321   2.066       .  S
Fe310       O326   2.049       .  S
Fe310       O320   1.967       .  S
Fe311       O329   2.061       .  S
Fe311       O316   2.082       .  S
Fe311       O323   2.083       .  S
Fe311       O312   2.057       .  S
Fe311       O320   1.984       .  S
O312        C319   1.267       .  A
O313        C327   1.269       .  A
O314        C319   1.269       .  A
O315        C318   1.265       .  A
O316        C328   1.272       .  A
O317        C330   1.265       .  A
C318        O323   1.271       .  A
C318       C1469   1.473       .  S
C319       C1598   1.482       .  S
O321        C324   1.270   1_655  A
O322        C324   1.268       .  A
C324       C1498   1.477       .  S
O325        C330   1.268       .  A
O326        C328   1.267       .  A
C327        O329   1.268       .  A
C327       C2378   1.472       .  S
C328       C2609   1.488       .  S
C330       C1569   1.481   1_655  S
Fe331       O347   2.049   1_655  S
Fe331       O337   2.049       .  S
Fe331       O344   2.056   1_655  S
Fe331       O336   2.045       .  S
Fe331       O342   1.975       .  S
Fe332       O335   2.050       .  S
Fe332       O339   2.057       .  S
Fe332       O343   2.060       .  S
Fe332       O348   2.059       .  S
Fe332       O342   1.971       .  S
Fe333       O351   2.064       .  S
Fe333       O338   2.072       .  S
Fe333       O345   2.071       .  S
Fe333       O334   2.056       .  S
Fe333       O342   1.985       .  S
O334        C341   1.267       .  A
O335        C349   1.267       .  A
O336        C341   1.266       .  A
O337        C340   1.267       .  A
O338        C350   1.270       .  A
O339        C352   1.267       .  A
C340        O345   1.270       .  A
C340       C1478   1.475       .  S
C341       C1558   1.474       .  S
O343        C346   1.267   1_655  A
O344        C346   1.268       .  A
C346       C1838   1.483       .  S
O347        C352   1.265   1_455  A
O348        C350   1.269       .  A
C349        O351   1.267       .  A
C349       C1449   1.468       .  S
C350       C1429   1.486       .  S
C352       C1529   1.470   1_655  S
Fe353       O369   2.061       .  S
Fe353       O359   2.053       .  S
Fe353       O366   2.060       .  S
Fe353       O358   2.047       .  S
Fe353       O364   1.975       .  S
Fe354       O357   2.059       .  S
Fe354       O361   2.065       .  S
Fe354       O365   2.064       .  S
Fe354       O370   2.057       .  S
Fe354       O364   1.973       .  S
Fe355       O373   2.077       .  S
Fe355       O360   2.060       .  S
Fe355       O367   2.061       .  S
Fe355       O356   2.080       .  S
Fe355       O364   1.989       .  S
O356        C363   1.271       .  A
O357        C371   1.268       .  A
O358        C363   1.266       .  A
O359        C362   1.267       .  A
O360        C372   1.267       .  A
O361        C374   1.268       .  A
C362        O367   1.268       .  A
C362       C1369   1.480       .  S
C363       C1418   1.487       .  S
O365        C368   1.269       .  A
O366        C368   1.267       .  A
C368       C1389   1.482       .  S
O369        C374   1.268       .  A
O370        C372   1.269       .  A
C371        O373   1.272       .  A
C371       C2278   1.490       .  S
C372       C2449   1.471       .  S
C374       C1358   1.485       .  S
Fe375       O391   2.058       .  S
Fe375       O381   2.053       .  S
Fe375       O388   2.057       .  S
Fe375       O380   2.039       .  S
Fe375       O386   1.963       .  S
Fe376       O379   2.049       .  S
Fe376       O383   2.083       .  S
Fe376       O387   2.044       .  S
Fe376       O392   2.067       .  S
Fe376       O386   1.961       .  S
Fe377       O395   2.083       .  S
Fe377       O382   2.064       .  S
Fe377       O389   2.061       .  S
Fe377       O378   2.089       .  S
Fe377       O386   1.979       .  S
O378        C385   1.272       .  A
O379        C393   1.268       .  A
O380        C385   1.265       .  A
O381        C384   1.268       .  A
O382        C394   1.268       .  A
O383        C396   1.272       .  A
C384        O389   1.270       .  A
C384       C1329   1.479       .  S
C385       C1409   1.480       .  S
O387        C390   1.266       .  A
O388        C390   1.267       .  A
C390       C1318   1.472       .  S
O391        C396   1.267       .  A
O392        C394   1.270       .  A
C393        O395   1.273       .  A
C393       C1269   1.482       .  S
C394       C1298   1.470       .  S
C396       C1758   1.492       .  S
Fe397       O413   2.078       .  S
Fe397       O403   2.051       .  S
Fe397       O410   2.059       .  S
Fe397       O402   2.077       .  S
Fe397       O408   1.962       .  S
Fe398       O401   2.067       .  S
Fe398       O405   2.044       .  S
Fe398       O409   2.068       .  S
Fe398       O414   2.052       .  S
Fe398       O408   1.954       .  S
Fe399       O417   2.061       .  S
Fe399       O404   2.083       .  S
Fe399       O411   2.089       .  S
Fe399       O400   2.055       .  S
Fe399       O408   1.969       .  S
O400        C407   1.269       .  A
O401        C415   1.271       .  A
O402        C407   1.271       .  A
O403        C406   1.267       .  A
O404        C416   1.273       .  A
O405        C418   1.266       .  A
C406        O411   1.273       .  A
C406       C1258   1.483       .  S
C407       C1398   1.482       .  S
O409        C412   1.269       .  A
O410        C412   1.268       .  A
C412       C2478   1.480       .  S
O413        C418   1.271       .  A
O414        C416   1.267       .  A
C415        O417   1.268       .  A
C415       C1238   1.470       .  S
C416       C1209   1.480       .  S
C418       C1378   1.481       .  S
Fe419       O435   2.034       .  S
Fe419       O425   2.051       .  S
Fe419       O432   2.058       .  S
Fe419       O424   2.035       .  S
Fe419       O430   1.975       .  S
Fe420       O423   2.060       .  S
Fe420       O427   2.073       .  S
Fe420       O431   2.072       .  S
Fe420       O436   2.079       .  S
Fe420       O430   1.974       .  S
Fe421       O439   2.072       .  S
Fe421       O426   2.066       .  S
Fe421       O433   2.081       .  S
Fe421       O422   2.072       .  S
Fe421       O430   1.984       .  S
O422        C429   1.272       .  A
O423        C437   1.270       .  A
O424        C429   1.264       .  A
O425        C428   1.265       .  A
O426        C438   1.269       .  A
O427        C440   1.270       .  A
C428        O433   1.269       .  A
C428       C1249   1.482       .  S
C429       C1309   1.478       .  S
O431        C434   1.270       .  A
O432        C434   1.267       .  A
C434       C1198   1.485       .  S
O435        C440   1.262       .  A
O436        C438   1.271       .  A
C437        O439   1.272       .  A
C437       C1729   1.472       .  S
C438       C1898   1.484       .  S
C440       C1338   1.474       .  S
Fe441       O457   2.054       .  S
Fe441       O447   2.068       .  S
Fe441       O454   2.073   1_554  S
Fe441       O446   2.040       .  S
Fe441       O452   1.964       .  S
Fe442       O445   2.039       .  S
Fe442       O449   2.072       .  S
Fe442       O453   2.036   1_554  S
Fe442       O458   2.061   1_554  S
Fe442       O452   1.960       .  S
Fe443       O461   2.074       .  S
Fe443       O448   2.067       .  S
Fe443       O455   2.056       .  S
Fe443       O444   2.075       .  S
Fe443       O452   1.976       .  S
O444        C451   1.270       .  A
O445        C459   1.264       .  A
O446        C451   1.264       .  A
O447        C450   1.272       .  A
O448        C460   1.270   1_554  A
O449        C462   1.269       .  A
C450        O455   1.270       .  A
C450       C1089   1.478       .  S
C451       C1138   1.477       .  S
O453        C456   1.265       .  A
O454        C456   1.271       .  A
C456       C1109   1.473       .  S
O457        C462   1.266       .  A
O458        C460   1.270       .  A
C459        O461   1.271       .  A
C459       C1169   1.479       .  S
C460       C1158   1.472       .  S
C462       C1438   1.487       .  S
Fe463       O479   2.055       .  S
Fe463       O469   2.060       .  S
Fe463       O476   2.060   1_556  S
Fe463       O468   2.042       .  S
Fe463       O474   1.975       .  S
Fe464       O467   2.050   1_554  S
Fe464       O471   2.071   1_554  S
Fe464       O475   2.045       .  S
Fe464       O480   2.062       .  S
Fe464       O474   1.965   1_554  S
Fe465       O483   2.076       .  S
Fe465       O470   2.067   1_556  S
Fe465       O477   2.059       .  S
Fe465       O466   2.076       .  S
Fe465       O474   1.984       .  S
O466        C473   1.270       .  A
O467        C481   1.267       .  A
O468        C473   1.265       .  A
O469        C472   1.268       .  A
O470        C482   1.269       .  A
O471        C484   1.270       .  A
C472        O477   1.269       .  A
C472       C1069   1.480       .  S
C473       C1129   1.470   1_556  S
O475        C478   1.265       .  A
O476        C478   1.267       .  A
C478       C1049   1.476       .  S
O479        C484   1.268       .  A
O480        C482   1.269       .  A
C481        O483   1.271       .  A
C481       C1189   1.484       .  S
C482       C1289   1.474       .  S
C484       C2098   1.486       .  S
Fe485       O501   2.065       .  S
Fe485       O491   2.038       .  S
Fe485       O498   2.056       .  S
Fe485       O490   2.058       .  S
Fe485       O496   1.973       .  S
Fe486       O489   2.058       .  S
Fe486       O493   2.051       .  S
Fe486       O497   2.071       .  S
Fe486       O502   2.054       .  S
Fe486       O496   1.970       .  S
Fe487       O505   2.055       .  S
Fe487       O492   2.087       .  S
Fe487       O499   2.095       .  S
Fe487       O488   2.054       .  S
Fe487       O496   1.986       .  S
O488        C495   1.268       .  A
O489        C503   1.269       .  A
O490        C495   1.269       .  A
O491        C494   1.263       .  A
O492        C504   1.273       .  A
O493        C506   1.268       .  A
C494        O499   1.272       .  A
C494       C1009   1.492       .  S
C495       C1118   1.471       .  S
O497        C500   1.269       .  A
O498        C500   1.267       .  A
C500       C1038   1.487       .  S
O501        C506   1.269       .  A
O502        C504   1.268       .  A
C503        O505   1.267       .  A
C503       C1458   1.467       .  S
C504       C1509   1.490       .  S
C506       C1098   1.477       .  S
Fe507       O523   2.058       .  S
Fe507       O513   2.051       .  S
Fe507       O520   2.063       .  S
Fe507       O512   2.054       .  S
Fe507       O518   1.972       .  S
Fe508       O511   2.059       .  S
Fe508       O515   2.055       .  S
Fe508       O519   2.064       .  S
Fe508       O524   2.054       .  S
Fe508       O518   1.973       .  S
Fe509       O527   2.056       .  S
Fe509       O514   2.071       .  S
Fe509       O521   2.082       .  S
Fe509       O510   2.051       .  S
Fe509       O518   1.987       .  S
O510        C517   1.265       .  A
O511        C525   1.269       .  A
O512        C517   1.267       .  A
O513        C516   1.268       .  A
O514        C526   1.271       .  A
O515        C528   1.267       .  A
C516        O521   1.271       .  A
C516       C1018   1.481       .  S
C517       C1058   1.479       .  S
O519        C522   1.269       .  A
O520        C522   1.269       .  A
C522       C1278   1.483       .  S
O523        C528   1.266       .  A
O524        C526   1.267       .  A
C525        O527   1.266       .  A
C525       C2118   1.472       .  S
C526       C1978   1.485       .  S
C528       C1078   1.473       .  S
Fe529       O545   2.062       .  S
Fe529       O535   2.063       .  S
Fe529       O542   2.072       .  S
Fe529       O534   2.044       .  S
Fe529       O540   1.946       .  S
Fe530       O533   2.042       .  S
Fe530       O537   2.072       .  S
Fe530       O541   2.051       .  S
Fe530       O546   2.062       .  S
Fe530       O540   1.942       .  S
Fe531       O549   2.090       .  S
Fe531       O536   2.071       .  S
Fe531       O543   2.064       .  S
Fe531       O532   2.088       .  S
Fe531       O540   1.959       .  S
O532        C539   1.273       .  A
O533        C547   1.268       .  A
O534        C539   1.268       .  A
O535        C538   1.269       .  A
O536        C548   1.269       .  A
O537        C550   1.269       .  A
C538        O543   1.270       .  A
C538        C949   1.483       .  S
C539        C998   1.474       .  S
O541        C544   1.269       .  A
O542        C544   1.271       .  A
C544        C978   1.478       .  S
O545        C550   1.268       .  A
O546        C548   1.268       .  A
C547        O549   1.276       .  A
C547       C2198   1.479       .  S
C548       C2049   1.470       .  S
C550       C1218   1.481       .  S
Fe551       O567   2.065       .  S
Fe551       O557   2.037       .  S
Fe551       O564   2.049       .  S
Fe551       O556   2.051       .  S
Fe551       O562   1.965       .  S
Fe552       O555   2.051       .  S
Fe552       O559   2.064       .  S
Fe552       O563   2.054       .  S
Fe552       O568   2.052       .  S
Fe552       O562   1.961       .  S
Fe553       O571   2.072       .  S
Fe553       O558   2.068       .  S
Fe553       O565   2.068       .  S
Fe553       O554   2.068       .  S
Fe553       O562   1.977       .  S
O554        C561   1.269       .  A
O555        C569   1.266       .  A
O556        C561   1.268       .  A
O557        C560   1.266       .  A
O558        C570   1.270       .  A
O559        C572   1.270       .  A
C560        O565   1.269       .  A
C560        C938   1.474       .  S
C561        C989   1.483       .  S
O563        C566   1.265       .  A
O564        C566   1.264       .  A
C566        C909   1.468       .  S
O567        C572   1.270       .  A
O568        C570   1.270       .  A
C569        O571   1.270       .  A
C569       C1489   1.483       .  S
C570       C1649   1.475       .  S
C572        C889   1.485       .  S
Fe573       O589   2.065       .  S
Fe573       O579   2.047       .  S
Fe573       O586   2.057       .  S
Fe573       O578   2.058       .  S
Fe573       O584   1.974       .  S
Fe574       O577   2.064   1_554  S
Fe574       O581   2.047   1_554  S
Fe574       O585   2.073       .  S
Fe574       O590   2.055       .  S
Fe574       O584   1.968       .  S
Fe575       O593   2.059       .  S
Fe575       O580   2.074       .  S
Fe575       O587   2.083       .  S
Fe575       O576   2.058       .  S
Fe575       O584   1.984       .  S
O576        C583   1.267       .  A
O577        C591   1.269   1_556  A
O578        C583   1.268       .  A
O579        C582   1.268       .  A
O580        C592   1.272       .  A
O581        C594   1.265       .  A
C582        O587   1.272       .  A
C582        C878   1.486       .  S
C583        C969   1.482       .  S
O585        C588   1.271       .  A
O586        C588   1.268       .  A
C588       C2038   1.488       .  S
O589        C594   1.267   1_554  A
O590        C592   1.267       .  A
C591        O593   1.267       .  A
C591       C1229   1.470   1_554  S
C592       C1349   1.486       .  S
C594        C958   1.479       .  S
Fe595       O611   2.059   1_556  S
Fe595       O601   2.045       .  S
Fe595       O608   2.059       .  S
Fe595       O600   2.053       .  S
Fe595       O606   1.973       .  S
Fe596       O599   2.061       .  S
Fe596       O603   2.043       .  S
Fe596       O607   2.068   1_554  S
Fe596       O612   2.045   1_554  S
Fe596       O606   1.970   1_554  S
Fe597       O615   2.051   1_556  S
Fe597       O602   2.077       .  S
Fe597       O609   2.085       .  S
Fe597       O598   2.052       .  S
Fe597       O606   1.983       .  S
O598        C605   1.266       .  A
O599        C613   1.270       .  A
O600        C605   1.267       .  A
O601        C604   1.266       .  A
O602        C614   1.271       .  A
O603        C616   1.265       .  A
C604        O609   1.271       .  A
C604        C869   1.479   1_556  S
C605        C918   1.477       .  S
O607        C610   1.270       .  A
O608        C610   1.268       .  A
C610       C1638   1.486       .  S
O611        C616   1.265       .  A
O612        C614   1.266       .  A
C613        O615   1.267       .  A
C613        C838   1.468       .  S
C614        C858   1.485       .  S
C616        C929   1.477       .  S
Fe617       O633   2.057   1_655  S
Fe617       O623   2.056       .  S
Fe617       O630   2.056       .  S
Fe617       O622   2.046       .  S
Fe617       O628   1.964       .  S
Fe618       O621   2.045       .  S
Fe618       O625   2.069       .  S
Fe618       O629   2.043       .  S
Fe618       O634   2.060       .  S
Fe618       O628   1.961       .  S
Fe619       O637   2.080       .  S
Fe619       O624   2.053       .  S
Fe619       O631   2.045       .  S
Fe619       O620   2.086       .  S
Fe619       O628   1.977       .  S
O620        C627   1.272       .  A
O621        C635   1.265       .  A
O622        C627   1.267       .  A
O623        C626   1.268       .  A
O624        C636   1.267       .  A
O625        C638   1.271   1_655  A
C626        O631   1.265       .  A
C626        C778   1.475       .  S
C627        C809   1.476       .  S
O629        C632   1.265       .  A
O630        C632   1.265       .  A
C632        C789   1.474   1_655  S
O633        C638   1.269       .  A
O634        C636   1.270       .  A
C635        O637   1.272       .  A
C635       C2358   1.484       .  S
C636       C2578   1.466       .  S
C638        C849   1.484       .  S
Fe639       O655   2.076   1_655  S
Fe639       O645   2.039       .  S
Fe639       O652   2.048       .  S
Fe639       O644   2.057       .  S
Fe639       O650   1.975       .  S
Fe640       O643   2.068       .  S
Fe640       O647   2.065       .  S
Fe640       O651   2.073       .  S
Fe640       O656   2.064       .  S
Fe640       O650   1.973       .  S
Fe641       O659   2.064       .  S
Fe641       O646   2.066       .  S
Fe641       O653   2.075       .  S
Fe641       O642   2.074       .  S
Fe641       O650   1.987       .  S
O642        C649   1.270       .  A
O643        C657   1.270       .  A
O644        C649   1.269       .  A
O645        C648   1.265       .  A
O646        C658   1.269       .  A
O647        C660   1.269   1_655  A
C648        O653   1.270       .  A
C648        C749   1.478       .  S
C649        C818   1.488       .  S
O651        C654   1.270       .  A
O652        C654   1.264       .  A
C654        C729   1.475   1_655  S
O655        C660   1.270       .  A
O656        C658   1.270       .  A
C657        O659   1.270       .  A
C657       C1029   1.481       .  S
C658       C1149   1.476       .  S
C660       C1689   1.493       .  S
Fe661       O677   2.048       .  S
Fe661       O667   2.047       .  S
Fe661       O674   2.059       .  S
Fe661       O666   2.040       .  S
Fe661       O672   1.973       .  S
Fe662       O665   2.055       .  S
Fe662       O669   2.046       .  S
Fe662       O673   2.072       .  S
Fe662       O678   2.053       .  S
Fe662       O672   1.973       .  S
Fe663       O681   2.057       .  S
Fe663       O668   2.072       .  S
Fe663       O675   2.070       .  S
Fe663       O664   2.059       .  S
Fe663       O672   1.988       .  S
O664        C671   1.268       .  A
O665        C679   1.269       .  A
O666        C671   1.265       .  A
O667        C670   1.267       .  A
O668        C680   1.270       .  A
O669        C682   1.265       .  A
C670        O675   1.269       .  A
C670        C718   1.483       .  S
C671        C798   1.475       .  S
O673        C676   1.270       .  A
O674        C676   1.269       .  A
C676       C2598   1.485   1_455  S
O677        C682   1.264       .  A
O678        C680   1.266       .  A
C679        O681   1.267       .  A
C679        C829   1.468       .  S
C680        C898   1.485       .  S
C682        C769   1.472       .  S
Fe683       O699   2.067       .  S
Fe683       O689   2.046       .  S
Fe683       O696   2.058       .  S
Fe683       O688   2.062       .  S
Fe683       O694   1.977       .  S
Fe684       O687   2.048       .  S
Fe684       O691   2.040       .  S
Fe684       O695   2.057       .  S
Fe684       O700   2.043       .  S
Fe684       O694   1.970       .  S
Fe685       O703   2.067       .  S
Fe685       O690   2.072       .  S
Fe685       O697   2.072       .  S
Fe685       O686   2.061       .  S
Fe685       O694   1.988       .  S
O686        C693   1.268       .  A
O687        C701   1.267       .  A
O688        C693   1.268       .  A
O689        C692   1.267       .  A
O690        C702   1.271       .  A
O691        C704   1.264       .  A
C692        O697   1.269       .  A
C692        C709   1.467       .  S
C693        C738   1.483       .  S
O695        C698   1.268       .  A
O696        C698   1.268       .  A
C698       C1178   1.481   1_455  S
O699        C704   1.266       .  A
O700        C702   1.265       .  A
C701        O703   1.268       .  A
C701       C1669   1.472       .  S
C702       C1798   1.482       .  S
C704        C758   1.476       .  S
C705        C706   1.401   1_565  A
C705        C710   1.391       .  A
C705        H715   1.084       .  S
C706        C711   1.471       .  S
C706        C707   1.405       .  A
C707        C708   1.401   1_545  A
C707        F712   1.357       .  S
C708        C709   1.404       .  A
C708        H713   1.083       .  S
C709        C710   1.404       .  A
C710        F714   1.358       .  S
C711        C716   1.401       .  A
C711        C720   1.401       .  A
C716        C717   1.390       .  A
C716        F721   1.358       .  S
C717        C718   1.407       .  A
C717        H722   1.083       .  S
C718        C719   1.413       .  A
C719        C720   1.402       .  A
C719        F723   1.357       .  S
C720        H724   1.083       .  S
C725        C726   1.403       .  A
C725        C730   1.399       .  A
C725        H735   1.083       .  S
C726        C731   1.477       .  S
C726        C727   1.406       .  A
C727        C728   1.394       .  A
C727        F732   1.357       .  S
C728        C729   1.402       .  A
C728        H733   1.083       .  S
C729        C730   1.410       .  A
C730        F734   1.358       .  S
C731        C736   1.404       .  A
C731        C740   1.402   1_556  A
C736        C737   1.397   1_556  A
C736        F741   1.358       .  S
C737        C738   1.407       .  A
C737        H742   1.083       .  S
C738        C739   1.411       .  A
C739        C740   1.397       .  A
C739        F743   1.357       .  S
C740        H744   1.083   1_554  S
C745        C746   1.403       .  A
C745        C750   1.401       .  A
C745        H755   1.083       .  S
C746        C751   1.472       .  S
C746        C747   1.401   1_655  A
C747        C748   1.390   1_455  A
C747        F752   1.358       .  S
C748        C749   1.406       .  A
C748        H753   1.083   1_655  S
C749        C750   1.410       .  A
C750        F754   1.357       .  S
C751        C756   1.404   1_655  A
C751        C760   1.402       .  A
C756        C757   1.390       .  A
C756        F761   1.358       .  S
C757        C758   1.405       .  A
C757        H762   1.083       .  S
C758        C759   1.409   1_455  A
C759        C760   1.400       .  A
C759        F763   1.357       .  S
C760        H764   1.083       .  S
C765        C766   1.399       .  A
C765        C770   1.395       .  A
C765        H775   1.083       .  S
C766        C771   1.462       .  S
C766        C767   1.401   1_655  A
C767        C768   1.389       .  A
C767        F772   1.358       .  S
C768        C769   1.405       .  A
C768        H773   1.083       .  S
C769        C770   1.410   1_455  A
C770        F774   1.357       .  S
C771        C776   1.399       .  A
C771        C780   1.399       .  A
C776        C777   1.390   1_554  A
C776        F781   1.358   1_655  S
C777        C778   1.407       .  A
C777        H782   1.083   1_655  S
C778        C779   1.411       .  A
C779        C780   1.394   1_556  A
C779        F783   1.358       .  S
C780        H784   1.083       .  S
C785        C786   1.400       .  A
C785        C790   1.396       .  A
C785        H795   1.082       .  S
C786        C791   1.467       .  S
C786        C787   1.403   1_455  A
C787        C788   1.389       .  A
C787        F792   1.358       .  S
C788        C789   1.404   1_655  A
C788        H793   1.082       .  S
C789        C790   1.411       .  A
C790        F794   1.357       .  S
C791        C796   1.403       .  A
C791        C800   1.399       .  A
C796        C797   1.396       .  A
C796        F801   1.357       .  S
C797        C798   1.407       .  A
C797        H802   1.082       .  S
C798        C799   1.410       .  A
C799        C800   1.388       .  A
C799        F803   1.358       .  S
C800        H804   1.083   1_455  S
C805        C806   1.404       .  A
C805        C810   1.404       .  A
C805        H815   1.083       .  S
C806        C811   1.477       .  S
C806        C807   1.403       .  A
C807        C808   1.393       .  A
C807        F812   1.358       .  S
C808        C809   1.404       .  A
C808        H813   1.084       .  S
C809        C810   1.408       .  A
C810        F814   1.357       .  S
C811        C816   1.402       .  A
C811        C820   1.403   1_545  A
C816        C817   1.392   1_545  A
C816        F821   1.358       .  S
C817        C818   1.407       .  A
C817        H822   1.083       .  S
C818        C819   1.413       .  A
C819        C820   1.405       .  A
C819        F823   1.357       .  S
C820        H824   1.083   1_565  S
C825        C826   1.402       .  A
C825        C830   1.393       .  A
C825        H835   1.084       .  S
C826        C831   1.469       .  S
C826        C827   1.404       .  A
C827        C828   1.396       .  A
C827        F832   1.357       .  S
C828        C829   1.404       .  A
C828        H833   1.083       .  S
C829        C830   1.405       .  A
C830        F834   1.358       .  S
C831        C836   1.402       .  A
C831        C840   1.404       .  A
C836        C837   1.397       .  A
C836        F841   1.357       .  S
C837        C838   1.406       .  A
C837        H842   1.083       .  S
C838        C839   1.404       .  A
C839        C840   1.392       .  A
C839        F843   1.358       .  S
C840        H844   1.083       .  S
C845        C846   1.401       .  A
C845        C850   1.396       .  A
C845        H855   1.084       .  S
C846        C851   1.475       .  S
C846        C847   1.403       .  A
C847        C848   1.397       .  A
C847        F852   1.358       .  S
C848        C849   1.408       .  A
C848        H853   1.084       .  S
C849        C850   1.411       .  A
C850        F854   1.357       .  S
C851        C856   1.402       .  A
C851        C860   1.402       .  A
C856        C857   1.396       .  A
C856        F861   1.358       .  S
C857        C858   1.410       .  A
C857        H862   1.084       .  S
C858        C859   1.410       .  A
C859        C860   1.397       .  A
C859        F863   1.357       .  S
C860        H864   1.084       .  S
C865        C866   1.399       .  A
C865        C870   1.392       .  A
C865        H875   1.084       .  S
C866        C871   1.474       .  S
C866        C867   1.405   1_554  A
C867        C868   1.405       .  A
C867        F872   1.357       .  S
C868        C869   1.407   1_556  A
C868        H873   1.083       .  S
C869        C870   1.408       .  A
C870        F874   1.358       .  S
C871        C876   1.401       .  A
C871        C880   1.403       .  A
C876        C877   1.391       .  A
C876        F881   1.358   1_554  S
C877        C878   1.407       .  A
C877        H882   1.083       .  S
C878        C879   1.412       .  A
C879        C880   1.405       .  A
C879        F883   1.357       .  S
C880        H884   1.083       .  S
C885        C886   1.402       .  A
C885        C890   1.400       .  A
C885        H895   1.083       .  S
C886        C891   1.476       .  S
C886        C887   1.402       .  A
C887        C888   1.395       .  A
C887        F892   1.358       .  S
C888        C889   1.409       .  A
C888        H893   1.083       .  S
C889        C890   1.411       .  A
C890        F894   1.357       .  S
C891        C896   1.404       .  A
C891        C900   1.400       .  A
C896        C897   1.399       .  A
C896        F901   1.357       .  S
C897        C898   1.407       .  A
C897        H902   1.083       .  S
C898        C899   1.413       .  A
C899        C900   1.396       .  A
C899        F903   1.358       .  S
C900        H904   1.084       .  S
C905        C906   1.401       .  A
C905        C910   1.390       .  A
C905        H915   1.084       .  S
C906        C911   1.467       .  S
C906        C907   1.402       .  A
C907        C908   1.398       .  A
C907        F912   1.357       .  S
C908        C909   1.406       .  A
C908        H913   1.084       .  S
C909        C910   1.406       .  A
C910        F914   1.358       .  S
C911        C916   1.401       .  A
C911        C920   1.400       .  A
C916        C917   1.391       .  A
C916        F921   1.358       .  S
C917        C918   1.406       .  A
C917        H922   1.084       .  S
C918        C919   1.411       .  A
C919        C920   1.397       .  A
C919        F923   1.357       .  S
C920        H924   1.084       .  S
C925        C926   1.399       .  A
C925        C930   1.398       .  A
C925        H935   1.083       .  S
C926        C931   1.464       .  S
C926        C927   1.401       .  A
C927        C928   1.389       .  A
C927        F932   1.358       .  S
C928        C929   1.406       .  A
C928        H933   1.083       .  S
C929        C930   1.412       .  A
C930        F934   1.357       .  S
C931        C936   1.400       .  A
C931        C940   1.400       .  A
C936        C937   1.389       .  A
C936        F941   1.358       .  S
C937        C938   1.407       .  A
C937        H942   1.084       .  S
C938        C939   1.410       .  A
C939        C940   1.397       .  A
C939        F943   1.357       .  S
C940        H944   1.084       .  S
C945        C946   1.400       .  A
C945        C950   1.391       .  A
C945        H955   1.084       .  S
C946        C951   1.475       .  S
C946        C947   1.405       .  A
C947        C948   1.400       .  A
C947        F952   1.357       .  S
C948        C949   1.408       .  A
C948        H953   1.083       .  S
C949        C950   1.412       .  A
C950        F954   1.358       .  S
C951        C956   1.404       .  A
C951        C960   1.402       .  A
C956        C957   1.400       .  A
C956        F961   1.357       .  S
C957        C958   1.409       .  A
C957        H962   1.083       .  S
C958        C959   1.408       .  A
C959        C960   1.390       .  A
C959        F963   1.358       .  S
C960        H964   1.084       .  S
C965        C966   1.402       .  A
C965        C970   1.398       .  A
C965        H975   1.084       .  S
C966        C971   1.474       .  S
C966        C967   1.403       .  A
C967        C968   1.392       .  A
C967        F972   1.358       .  S
C968        C969   1.407       .  A
C968        H973   1.083       .  S
C969        C970   1.412       .  A
C970        F974   1.357       .  S
C971        C976   1.403       .  A
C971        C980   1.403       .  A
C976        C977   1.397       .  A
C976        F981   1.358       .  S
C977        C978   1.408       .  A
C977        H982   1.084       .  S
C978        C979   1.408       .  A
C979        C980   1.393       .  A
C979        F983   1.358       .  S
C980        H984   1.084       .  S
C985        C986   1.402       .  A
C985        C990   1.403       .  A
C985        H995   1.083       .  S
C986        C991   1.473       .  S
C986        C987   1.402       .  A
C987        C988   1.389       .  A
C987        F992   1.358       .  S
C988        C989   1.407       .  A
C988        H993   1.083       .  S
C989        C990   1.412       .  A
C990        F994   1.357       .  S
C991        C996   1.403       .  A
C991       C1000   1.403       .  A
C996        C997   1.392       .  A
C996       F1001   1.358       .  S
C997        C998   1.404       .  A
C997       H1002   1.084       .  S
C998        C999   1.407       .  A
C999       C1000   1.400       .  A
C999       F1003   1.357       .  S
C1000      H1004   1.083       .  S
C1005      C1006   1.399       .  A
C1005      C1010   1.390       .  A
C1005      H1015   1.084       .  S
C1006      C1011   1.481       .  S
C1006      C1007   1.406       .  A
C1007      C1008   1.408       .  A
C1007      F1012   1.357       .  S
C1008      C1009   1.411       .  A
C1008      H1013   1.083       .  S
C1009      C1010   1.414       .  A
C1010      F1014   1.358       .  S
C1011      C1016   1.405       .  A
C1011      C1020   1.405       .  A
C1016      C1017   1.392       .  A
C1016      F1021   1.358       .  S
C1017      C1018   1.404       .  A
C1017      H1022   1.084       .  S
C1018      C1019   1.410       .  A
C1019      C1020   1.406       .  A
C1019      F1023   1.357       .  S
C1020      H1024   1.083       .  S
C1025      C1026   1.405       .  A
C1025      C1030   1.399       .  A
C1025      H1035   1.083       .  S
C1026      C1031   1.484       .  S
C1026      C1027   1.406       .  A
C1027      C1028   1.398       .  A
C1027      F1032   1.357       .  S
C1028      C1029   1.405       .  A
C1028      H1033   1.083       .  S
C1029      C1030   1.409       .  A
C1030      F1034   1.358       .  S
C1031      C1036   1.406       .  A
C1031      C1040   1.404       .  A
C1036      C1037   1.397       .  A
C1036      F1041   1.358       .  S
C1037      C1038   1.407       .  A
C1037      H1042   1.083       .  S
C1038      C1039   1.411       .  A
C1039      C1040   1.400       .  A
C1039      F1043   1.357       .  S
C1040      H1044   1.083       .  S
C1045      C1046   1.400       .  A
C1045      C1050   1.390       .  A
C1045      H1055   1.084       .  S
C1046      C1051   1.470       .  S
C1046      C1047   1.403       .  A
C1047      C1048   1.397       .  A
C1047      F1052   1.357       .  S
C1048      C1049   1.408       .  A
C1048      H1053   1.083       .  S
C1049      C1050   1.409       .  A
C1050      F1054   1.358       .  S
C1051      C1056   1.402       .  A
C1051      C1060   1.400       .  A
C1056      C1057   1.392       .  A
C1056      F1061   1.358       .  S
C1057      C1058   1.406       .  A
C1057      H1062   1.083       .  S
C1058      C1059   1.412       .  A
C1059      C1060   1.396       .  A
C1059      F1063   1.357       .  S
C1060      H1064   1.084       .  S
C1065      C1066   1.400       .  A
C1065      C1070   1.396       .  A
C1065      H1075   1.083       .  S
C1066      C1071   1.472       .  S
C1066      C1067   1.403       .  A
C1067      C1068   1.396       .  A
C1067      F1072   1.358       .  S
C1068      C1069   1.407       .  A
C1068      H1073   1.083       .  S
C1069      C1070   1.411       .  A
C1070      F1074   1.358       .  S
C1071      C1076   1.403       .  A
C1071      C1080   1.402       .  A
C1076      C1077   1.398       .  A
C1076      F1081   1.357       .  S
C1077      C1078   1.406       .  A
C1077      H1082   1.083       .  S
C1078      C1079   1.406       .  A
C1079      C1080   1.393       .  A
C1079      F1083   1.358       .  S
C1080      H1084   1.083       .  S
C1085      C1086   1.401       .  A
C1085      C1090   1.396       .  A
C1085      H1095   1.083       .  S
C1086      C1091   1.470       .  S
C1086      C1087   1.402       .  A
C1087      C1088   1.395       .  A
C1087      F1092   1.358       .  S
C1088      C1089   1.407       .  A
C1088      H1093   1.083       .  S
C1089      C1090   1.410       .  A
C1090      F1094   1.358       .  S
C1091      C1096   1.402       .  A
C1091      C1100   1.402       .  A
C1096      C1097   1.392       .  A
C1096      F1101   1.358       .  S
C1097      C1098   1.405       .  A
C1097      H1102   1.083       .  S
C1098      C1099   1.410       .  A
C1099      C1100   1.399       .  A
C1099      F1103   1.357       .  S
C1100      H1104   1.083       .  S
C1105      C1106   1.399       .  A
C1105      C1110   1.389       .  A
C1105      H1115   1.084       .  S
C1106      C1111   1.466       .  S
C1106      C1107   1.403       .  A
C1107      C1108   1.398       .  A
C1107      F1112   1.357       .  S
C1108      C1109   1.406       .  A
C1108      H1113   1.083       .  S
C1109      C1110   1.409       .  A
C1110      F1114   1.358       .  S
C1111      C1116   1.402       .  A
C1111      C1120   1.401       .  A
C1116      C1117   1.395       .  A
C1116      F1121   1.357       .  S
C1117      C1118   1.406       .  A
C1117      H1122   1.083       .  S
C1118      C1119   1.408       .  A
C1119      C1120   1.393       .  A
C1119      F1123   1.358       .  S
C1120      H1124   1.084       .  S
C1125      C1126   1.399       .  A
C1125      C1130   1.395       .  A
C1125      H1135   1.083       .  S
C1126      C1131   1.466       .  S
C1126      C1127   1.403   1_554  A
C1127      C1128   1.397       .  A
C1127      F1132   1.357       .  S
C1128      C1129   1.403   1_556  A
C1128      H1133   1.083       .  S
C1129      C1130   1.408       .  A
C1130      F1134   1.358       .  S
C1131      C1136   1.401       .  A
C1131      C1140   1.398       .  A
C1136      C1137   1.399       .  A
C1136      F1141   1.357       .  S
C1137      C1138   1.408       .  A
C1137      H1142   1.083       .  S
C1138      C1139   1.410       .  A
C1139      C1140   1.392       .  A
C1139      F1143   1.358   1_554  S
C1140      H1144   1.084   1_554  S
C1145      C1146   1.402       .  A
C1145      C1150   1.398       .  A
C1145      H1155   1.083       .  S
C1146      C1151   1.478       .  S
C1146      C1147   1.407       .  A
C1147      C1148   1.398       .  A
C1147      F1152   1.358       .  S
C1148      C1149   1.403       .  A
C1148      H1153   1.083       .  S
C1149      C1150   1.409       .  A
C1150      F1154   1.358       .  S
C1151      C1156   1.406       .  A
C1151      C1160   1.403       .  A
C1156      C1157   1.402       .  A
C1156      F1161   1.357       .  S
C1157      C1158   1.405       .  A
C1157      H1162   1.083   1_556  S
C1158      C1159   1.405       .  A
C1159      C1160   1.393       .  A
C1159      F1163   1.358       .  S
C1160      H1164   1.084       .  S
C1165      C1166   1.400       .  A
C1165      C1170   1.393       .  A
C1165      H1175   1.083       .  S
C1166      C1171   1.472       .  S
C1166      C1167   1.404       .  A
C1167      C1168   1.395       .  A
C1167      F1172   1.358       .  S
C1168      C1169   1.407       .  A
C1168      H1173   1.083       .  S
C1169      C1170   1.412       .  A
C1170      F1174   1.358       .  S
C1171      C1176   1.403       .  A
C1171      C1180   1.401       .  A
C1176      C1177   1.395       .  A
C1176      F1181   1.358       .  S
C1177      C1178   1.408       .  A
C1177      H1182   1.083       .  S
C1178      C1179   1.410       .  A
C1179      C1180   1.395       .  A
C1179      F1183   1.357       .  S
C1180      H1184   1.083       .  S
C1185      C1186   1.401       .  A
C1185      C1190   1.396       .  A
C1185      H1195   1.084       .  S
C1186      C1191   1.480       .  S
C1186      C1187   1.406       .  A
C1187      C1188   1.399       .  A
C1187      F1192   1.357       .  S
C1188      C1189   1.407       .  A
C1188      H1193   1.084       .  S
C1189      C1190   1.411       .  A
C1190      F1194   1.358       .  S
C1191      C1196   1.405       .  A
C1191      C1200   1.402       .  A
C1196      C1197   1.399       .  A
C1196      F1201   1.358       .  S
C1197      C1198   1.407       .  A
C1197      H1202   1.084       .  S
C1198      C1199   1.411       .  A
C1199      C1200   1.397       .  A
C1199      F1203   1.358       .  S
C1200      H1204   1.084       .  S
C1205      C1206   1.403       .  A
C1205      C1210   1.399       .  A
C1205      H1215   1.083       .  S
C1206      C1211   1.479       .  S
C1206      C1207   1.404       .  A
C1207      C1208   1.397       .  A
C1207      F1212   1.357       .  S
C1208      C1209   1.405       .  A
C1208      H1213   1.083       .  S
C1209      C1210   1.410       .  A
C1210      F1214   1.358       .  S
C1211      C1216   1.407       .  A
C1211      C1220   1.401       .  A
C1216      C1217   1.399       .  A
C1216      F1221   1.358       .  S
C1217      C1218   1.405       .  A
C1217      H1222   1.083       .  S
C1218      C1219   1.411       .  A
C1219      C1220   1.397       .  A
C1219      F1223   1.358       .  S
C1220      H1224   1.083       .  S
C1225      C1226   1.403       .  A
C1225      C1230   1.395       .  A
C1225      H1235   1.084       .  S
C1226      C1231   1.476       .  S
C1226      C1227   1.406       .  A
C1227      C1228   1.399       .  A
C1227      F1232   1.358       .  S
C1228      C1229   1.404       .  A
C1228      H1233   1.083   1_556  S
C1229      C1230   1.404       .  A
C1230      F1234   1.357       .  S
C1231      C1236   1.406       .  A
C1231      C1240   1.402       .  A
C1236      C1237   1.401       .  A
C1236      F1241   1.357       .  S
C1237      C1238   1.404       .  A
C1237      H1242   1.083       .  S
C1238      C1239   1.403       .  A
C1239      C1240   1.393       .  A
C1239      F1243   1.357       .  S
C1240      H1244   1.083       .  S
C1245      C1246   1.403       .  A
C1245      C1250   1.404   1_545  A
C1245      H1255   1.083       .  S
C1246      C1251   1.475       .  S
C1246      C1247   1.402       .  A
C1247      C1248   1.396   1_545  A
C1247      F1252   1.358       .  S
C1248      C1249   1.406       .  A
C1248      H1253   1.083       .  S
C1249      C1250   1.410       .  A
C1250      F1254   1.357       .  S
C1251      C1256   1.403       .  A
C1251      C1260   1.400       .  A
C1256      C1257   1.402       .  A
C1256      F1261   1.357       .  S
C1257      C1258   1.407       .  A
C1257      H1262   1.083       .  S
C1258      C1259   1.411       .  A
C1259      C1260   1.397       .  A
C1259      F1263   1.358       .  S
C1260      H1264   1.084       .  S
C1265      C1266   1.403       .  A
C1265      C1270   1.397       .  A
C1265      H1275   1.083       .  S
C1266      C1271   1.481       .  S
C1266      C1267   1.406       .  A
C1267      C1268   1.398       .  A
C1267      F1272   1.358       .  S
C1268      C1269   1.406       .  A
C1268      H1273   1.082       .  S
C1269      C1270   1.410       .  A
C1270      F1274   1.358       .  S
C1271      C1276   1.405       .  A
C1271      C1280   1.404       .  A
C1276      C1277   1.398       .  A
C1276      F1281   1.358       .  S
C1277      C1278   1.408       .  A
C1277      H1282   1.083       .  S
C1278      C1279   1.409       .  A
C1279      C1280   1.397       .  A
C1279      F1283   1.358       .  S
C1280      H1284   1.083       .  S
C1285      C1286   1.404       .  A
C1285      C1290   1.402       .  A
C1285      H1295   1.084       .  S
C1286      C1291   1.478       .  S
C1286      C1287   1.405       .  A
C1287      C1288   1.395       .  A
C1287      F1292   1.358       .  S
C1288      C1289   1.403       .  A
C1288      H1293   1.084       .  S
C1289      C1290   1.407       .  A
C1290      F1294   1.357       .  S
C1291      C1296   1.406       .  A
C1291      C1300   1.403       .  A
C1296      C1297   1.401       .  A
C1296      F1301   1.357       .  S
C1297      C1298   1.404       .  A
C1297      H1302   1.083       .  S
C1298      C1299   1.404       .  A
C1299      C1300   1.396       .  A
C1299      F1303   1.358       .  S
C1300      H1304   1.083       .  S
C1305      C1306   1.399       .  A
C1305      C1310   1.391   1_554  A
C1305      H1315   1.083       .  S
C1306      C1311   1.473       .  S
C1306      C1307   1.405       .  A
C1307      C1308   1.395   1_554  A
C1307      F1312   1.357       .  S
C1308      C1309   1.404       .  A
C1308      H1313   1.082       .  S
C1309      C1310   1.414       .  A
C1310      F1314   1.358       .  S
C1311      C1316   1.406       .  A
C1311      C1320   1.401       .  A
C1316      C1317   1.392       .  A
C1316      F1321   1.358       .  S
C1317      C1318   1.404       .  A
C1317      H1322   1.082       .  S
C1318      C1319   1.409       .  A
C1319      C1320   1.393       .  A
C1319      F1323   1.357       .  S
C1320      H1324   1.082       .  S
C1325      C1326   1.403       .  A
C1325      C1330   1.397       .  A
C1325      H1335   1.082       .  S
C1326      C1331   1.472       .  S
C1326      C1327   1.401       .  A
C1327      C1328   1.392       .  A
C1327      F1332   1.358       .  S
C1328      C1329   1.408       .  A
C1328      H1333   1.082       .  S
C1329      C1330   1.409       .  A
C1330      F1334   1.357       .  S
C1331      C1336   1.407       .  A
C1331      C1340   1.399       .  A
C1336      C1337   1.395       .  A
C1336      F1341   1.358       .  S
C1337      C1338   1.402       .  A
C1337      H1342   1.083       .  S
C1338      C1339   1.412       .  A
C1339      C1340   1.393       .  A
C1339      F1343   1.358       .  S
C1340      H1344   1.084       .  S
C1345      C1346   1.402       .  A
C1345      C1350   1.399       .  A
C1345      H1355   1.083       .  S
C1346      C1351   1.480       .  S
C1346      C1347   1.405       .  A
C1347      C1348   1.397       .  A
C1347      F1352   1.357       .  S
C1348      C1349   1.406       .  A
C1348      H1353   1.083       .  S
C1349      C1350   1.413       .  A
C1350      F1354   1.358       .  S
C1351      C1356   1.405       .  A
C1351      C1360   1.403       .  A
C1356      C1357   1.395       .  A
C1356      F1361   1.358       .  S
C1357      C1358   1.407       .  A
C1357      H1362   1.083       .  S
C1358      C1359   1.412       .  A
C1359      C1360   1.400       .  A
C1359      F1363   1.357       .  S
C1360      H1364   1.083       .  S
C1365      C1366   1.401   1_554  A
C1365      C1370   1.392       .  A
C1365      H1375   1.084       .  S
C1366      C1371   1.474       .  S
C1366      C1367   1.404   1_556  A
C1367      C1368   1.399       .  A
C1367      F1372   1.357   1_554  S
C1368      C1369   1.409       .  A
C1368      H1373   1.083       .  S
C1369      C1370   1.409       .  A
C1370      F1374   1.358       .  S
C1371      C1376   1.404       .  A
C1371      C1380   1.401       .  A
C1376      C1377   1.400       .  A
C1376      F1381   1.357       .  S
C1377      C1378   1.409       .  A
C1377      H1382   1.083       .  S
C1378      C1379   1.409       .  A
C1379      C1380   1.391       .  A
C1379      F1383   1.357       .  S
C1380      H1384   1.084       .  S
C1385      C1386   1.401       .  A
C1385      C1390   1.400       .  A
C1385      H1395   1.083       .  S
C1386      C1391   1.475       .  S
C1386      C1387   1.404       .  A
C1387      C1388   1.395       .  A
C1387      F1392   1.358       .  S
C1388      C1389   1.405       .  A
C1388      H1393   1.083       .  S
C1389      C1390   1.412       .  A
C1390      F1394   1.357       .  S
C1391      C1396   1.403       .  A
C1391      C1400   1.402       .  A
C1396      C1397   1.395       .  A
C1396      F1401   1.358       .  S
C1397      C1398   1.407       .  A
C1397      H1402   1.083       .  S
C1398      C1399   1.411       .  A
C1399      C1400   1.400       .  A
C1399      F1403   1.358       .  S
C1400      H1404   1.083       .  S
C1405      C1406   1.400       .  A
C1405      C1410   1.392   1_545  A
C1405      H1415   1.084       .  S
C1406      C1411   1.476       .  S
C1406      C1407   1.405       .  A
C1407      C1408   1.403   1_545  A
C1407      F1412   1.357       .  S
C1408      C1409   1.407       .  A
C1408      H1413   1.083       .  S
C1409      C1410   1.410       .  A
C1410      F1414   1.358       .  S
C1411      C1416   1.403       .  A
C1411      C1420   1.400       .  A
C1416      C1417   1.403       .  A
C1416      F1421   1.357       .  S
C1417      C1418   1.409       .  A
C1417      H1422   1.083       .  S
C1418      C1419   1.413       .  A
C1419      C1420   1.393       .  A
C1419      F1423   1.358       .  S
C1420      H1424   1.084       .  S
C1425      C1426   1.404       .  A
C1425      C1430   1.399       .  A
C1425      H1435   1.083       .  S
C1426      C1431   1.480       .  S
C1426      C1427   1.403       .  A
C1427      C1428   1.397       .  A
C1427      F1432   1.357       .  S
C1428      C1429   1.409       .  A
C1428      H1433   1.083       .  S
C1429      C1430   1.410       .  A
C1430      F1434   1.357       .  S
C1431      C1436   1.405       .  A
C1431      C1440   1.401       .  A
C1436      C1437   1.402       .  A
C1436      F1441   1.358       .  S
C1437      C1438   1.410       .  A
C1437      H1442   1.083       .  S
C1438      C1439   1.411       .  A
C1439      C1440   1.395       .  A
C1439      F1443   1.357       .  S
C1440      H1444   1.083       .  S
C1445      C1446   1.403       .  A
C1445      C1450   1.396       .  A
C1445      H1455   1.083       .  S
C1446      C1451   1.475       .  S
C1446      C1447   1.407       .  A
C1447      C1448   1.394       .  A
C1447      F1452   1.358       .  S
C1448      C1449   1.402       .  A
C1448      H1453   1.084       .  S
C1449      C1450   1.405       .  A
C1450      F1454   1.358       .  S
C1451      C1456   1.407       .  A
C1451      C1460   1.404       .  A
C1456      C1457   1.392       .  A
C1456      F1461   1.358       .  S
C1457      C1458   1.400       .  A
C1457      H1462   1.084       .  S
C1458      C1459   1.406       .  A
C1459      C1460   1.398       .  A
C1459      F1463   1.358       .  S
C1460      H1464   1.083       .  S
C1465      C1466   1.399       .  A
C1465      C1470   1.394       .  A
C1465      H1475   1.084       .  S
C1466      C1471   1.468       .  S
C1466      C1467   1.403       .  A
C1467      C1468   1.400       .  A
C1467      F1472   1.357       .  S
C1468      C1469   1.405       .  A
C1468      H1473   1.083       .  S
C1469      C1470   1.408       .  A
C1470      F1474   1.358       .  S
C1471      C1476   1.401       .  A
C1471      C1480   1.401       .  A
C1476      C1477   1.393       .  A
C1476      F1481   1.358       .  S
C1477      C1478   1.406       .  A
C1477      H1482   1.084       .  S
C1478      C1479   1.408       .  A
C1479      C1480   1.401       .  A
C1479      F1483   1.357       .  S
C1480      H1484   1.083       .  S
C1485      C1486   1.404       .  A
C1485      C1490   1.401       .  A
C1485      H1495   1.083       .  S
C1486      C1491   1.473       .  S
C1486      C1487   1.400       .  A
C1487      C1488   1.393       .  A
C1487      F1492   1.358       .  S
C1488      C1489   1.409       .  A
C1488      H1493   1.083       .  S
C1489      C1490   1.409       .  A
C1490      F1494   1.357       .  S
C1491      C1496   1.405       .  A
C1491      C1500   1.400       .  A
C1496      C1497   1.397       .  A
C1496      F1501   1.358       .  S
C1497      C1498   1.406       .  A
C1497      H1502   1.083       .  S
C1498      C1499   1.409       .  A
C1499      C1500   1.396       .  A
C1499      F1503   1.357       .  S
C1500      H1504   1.083       .  S
C1505      C1506   1.406       .  A
C1505      C1510   1.403       .  A
C1505      H1515   1.083       .  S
C1506      C1511   1.488       .  S
C1506      C1507   1.405       .  A
C1507      C1508   1.397       .  A
C1507      F1512   1.358       .  S
C1508      C1509   1.408       .  A
C1508      H1513   1.083       .  S
C1509      C1510   1.410       .  A
C1510      F1514   1.357       .  S
C1511      C1516   1.407       .  A
C1511      C1520   1.403       .  A
C1516      C1517   1.400       .  A
C1516      F1521   1.358       .  S
C1517      C1518   1.408       .  A
C1517      H1522   1.084   1_655  S
C1518      C1519   1.412       .  A
C1519      C1520   1.400       .  A
C1519      F1523   1.357       .  S
C1520      H1524   1.084       .  S
C1525      C1526   1.403       .  A
C1525      C1530   1.392   1_455  A
C1525      H1535   1.084   1_455  S
C1526      C1531   1.472       .  S
C1526      C1527   1.403       .  A
C1527      C1528   1.397       .  A
C1527      F1532   1.357       .  S
C1528      C1529   1.406       .  A
C1528      H1533   1.083       .  S
C1529      C1530   1.405   1_455  A
C1530      F1534   1.358       .  S
C1531      C1536   1.406       .  A
C1531      C1540   1.400       .  A
C1536      C1537   1.398       .  A
C1536      F1541   1.357       .  S
C1537      C1538   1.405       .  A
C1537      H1542   1.083       .  S
C1538      C1539   1.408       .  A
C1539      C1540   1.390       .  A
C1539      F1543   1.358       .  S
C1540      H1544   1.084       .  S
C1545      C1546   1.402       .  A
C1545      C1550   1.390   1_655  A
C1545      H1555   1.084       .  S
C1546      C1551   1.472       .  S
C1546      C1547   1.406   1_655  A
C1547      C1548   1.396       .  A
C1547      F1552   1.357       .  S
C1548      C1549   1.404       .  A
C1548      H1553   1.084       .  S
C1549      C1550   1.405       .  A
C1550      F1554   1.358   1_455  S
C1551      C1556   1.404   1_656  A
C1551      C1560   1.402       .  A
C1556      C1557   1.392   1_455  A
C1556      F1561   1.358       .  S
C1557      C1558   1.406       .  A
C1557      H1562   1.084   1_655  S
C1558      C1559   1.408       .  A
C1559      C1560   1.393   1_554  A
C1559      F1563   1.358       .  S
C1560      H1564   1.084       .  S
C1565      C1566   1.400       .  A
C1565      C1570   1.400       .  A
C1565      H1575   1.083       .  S
C1566      C1571   1.467       .  S
C1566      C1567   1.400       .  A
C1567      C1568   1.390   1_455  A
C1567      F1572   1.358   1_455  S
C1568      C1569   1.407   1_655  A
C1568      H1573   1.083       .  S
C1569      C1570   1.412       .  A
C1570      F1574   1.357       .  S
C1571      C1576   1.401       .  A
C1571      C1580   1.400       .  A
C1576      C1577   1.393   1_554  A
C1576      F1581   1.358   1_455  S
C1577      C1578   1.405       .  A
C1577      H1582   1.083       .  S
C1578      C1579   1.411       .  A
C1579      C1580   1.398   1_556  A
C1579      F1583   1.358       .  S
C1580      H1584   1.083       .  S
C1585      C1586   1.399       .  A
C1585      C1590   1.392   1_655  A
C1585      H1595   1.084       .  S
C1586      C1591   1.472       .  S
C1586      C1587   1.403       .  A
C1587      C1588   1.401   1_655  A
C1587      F1592   1.357       .  S
C1588      C1589   1.409       .  A
C1588      H1593   1.083       .  S
C1589      C1590   1.412       .  A
C1590      F1594   1.358       .  S
C1591      C1596   1.402       .  A
C1591      C1600   1.401       .  A
C1596      C1597   1.396       .  A
C1596      F1601   1.358   1_655  S
C1597      C1598   1.408       .  A
C1597      H1602   1.083       .  S
C1598      C1599   1.411       .  A
C1599      C1600   1.397       .  A
C1599      F1603   1.358       .  S
C1600      H1604   1.084       .  S
C1605      C1606   1.402       .  A
C1605      C1610   1.402       .  A
C1605      H1615   1.084       .  S
C1606      C1611   1.472       .  S
C1606      C1607   1.403       .  A
C1607      C1608   1.394       .  A
C1607      F1612   1.358       .  S
C1608      C1609   1.403       .  A
C1608      H1613   1.084       .  S
C1609      C1610   1.410       .  A
C1610      F1614   1.358       .  S
C1611      C1616   1.404       .  A
C1611      C1620   1.399       .  A
C1616      C1617   1.404       .  A
C1616      F1621   1.357       .  S
C1617      C1618   1.407       .  A
C1617      H1622   1.083       .  S
C1618      C1619   1.407       .  A
C1619      C1620   1.393       .  A
C1619      F1623   1.358       .  S
C1620      H1624   1.084       .  S
C1625      C1626   1.402       .  A
C1625      C1630   1.399       .  A
C1625      H1635   1.083       .  S
C1626      C1631   1.475       .  S
C1626      C1627   1.403       .  A
C1627      C1628   1.396       .  A
C1627      F1632   1.357       .  S
C1628      C1629   1.406       .  A
C1628      H1633   1.082       .  S
C1629      C1630   1.411       .  A
C1630      F1634   1.358       .  S
C1631      C1636   1.402       .  A
C1631      C1640   1.401       .  A
C1636      C1637   1.398       .  A
C1636      F1641   1.357       .  S
C1637      C1638   1.409       .  A
C1637      H1642   1.082       .  S
C1638      C1639   1.412       .  A
C1639      C1640   1.397       .  A
C1639      F1643   1.358       .  S
C1640      H1644   1.083       .  S
C1645      C1646   1.402       .  A
C1645      C1650   1.397       .  A
C1645      H1655   1.084       .  S
C1646      C1651   1.473       .  S
C1646      C1647   1.406       .  A
C1647      C1648   1.391       .  A
C1647      F1652   1.358       .  S
C1648      C1649   1.403       .  A
C1648      H1653   1.084       .  S
C1649      C1650   1.410       .  A
C1650      F1654   1.357       .  S
C1651      C1656   1.403       .  A
C1651      C1660   1.404       .  A
C1656      C1657   1.395       .  A
C1656      F1661   1.358       .  S
C1657      C1658   1.406       .  A
C1657      H1662   1.083       .  S
C1658      C1659   1.405       .  A
C1659      C1660   1.395       .  A
C1659      F1663   1.358       .  S
C1660      H1664   1.083       .  S
C1665      C1666   1.401       .  A
C1665      C1670   1.398       .  A
C1665      H1675   1.083       .  S
C1666      C1671   1.469       .  S
C1666      C1667   1.403       .  A
C1667      C1668   1.393       .  A
C1667      F1672   1.358       .  S
C1668      C1669   1.404       .  A
C1668      H1673   1.084       .  S
C1669      C1670   1.408       .  A
C1670      F1674   1.357       .  S
C1671      C1676   1.404       .  A
C1671      C1680   1.399       .  A
C1676      C1677   1.394       .  A
C1676      F1681   1.358       .  S
C1677      C1678   1.405       .  A
C1677      H1682   1.083       .  S
C1678      C1679   1.412       .  A
C1679      C1680   1.397       .  A
C1679      F1683   1.357       .  S
C1680      H1684   1.083       .  S
C1685      C1686   1.403       .  A
C1685      C1690   1.400       .  A
C1685      H1695   1.084       .  S
C1686      C1691   1.483       .  S
C1686      C1687   1.404       .  A
C1687      C1688   1.401       .  A
C1687      F1692   1.357       .  S
C1688      C1689   1.410       .  A
C1688      H1693   1.083       .  S
C1689      C1690   1.412       .  A
C1690      F1694   1.357       .  S
C1691      C1696   1.404       .  A
C1691      C1700   1.403       .  A
C1696      C1697   1.400       .  A
C1696      F1701   1.358       .  S
C1697      C1698   1.410       .  A
C1697      H1702   1.083       .  S
C1698      C1699   1.411       .  A
C1699      C1700   1.400       .  A
C1699      F1703   1.357       .  S
C1700      H1704   1.083       .  S
C1705      C1706   1.403       .  A
C1705      C1710   1.396       .  A
C1705      H1715   1.082       .  S
C1706      C1711   1.483       .  S
C1706      C1707   1.406       .  A
C1707      C1708   1.400       .  A
C1707      F1712   1.357       .  S
C1708      C1709   1.407       .  A
C1708      H1713   1.082       .  S
C1709      C1710   1.411       .  A
C1710      F1714   1.358       .  S
C1711      C1716   1.405       .  A
C1711      C1720   1.404       .  A
C1716      C1717   1.397       .  A
C1716      F1721   1.358       .  S
C1717      C1718   1.408       .  A
C1717      H1722   1.082       .  S
C1718      C1719   1.412       .  A
C1719      C1720   1.400       .  A
C1719      F1723   1.357       .  S
C1720      H1724   1.082       .  S
C1725      C1726   1.404       .  A
C1725      C1730   1.396       .  A
C1725      H1735   1.082       .  S
C1726      C1731   1.480       .  S
C1726      C1727   1.407       .  A
C1727      C1728   1.401       .  A
C1727      F1732   1.357       .  S
C1728      C1729   1.405       .  A
C1728      H1733   1.082       .  S
C1729      C1730   1.405       .  A
C1730      F1734   1.358       .  S
C1731      C1736   1.407       .  A
C1731      C1740   1.402       .  A
C1736      C1737   1.402       .  A
C1736      F1741   1.357       .  S
C1737      C1738   1.404       .  A
C1737      H1742   1.083       .  S
C1738      C1739   1.407       .  A
C1739      C1740   1.395       .  A
C1739      F1743   1.358       .  S
C1740      H1744   1.083       .  S
C1745      C1746   1.404       .  A
C1745      C1750   1.401       .  A
C1745      H1755   1.084       .  S
C1746      C1751   1.485       .  S
C1746      C1747   1.405       .  A
C1747      C1748   1.399       .  A
C1747      F1752   1.357       .  S
C1748      C1749   1.409       .  A
C1748      H1753   1.084       .  S
C1749      C1750   1.412       .  A
C1750      F1754   1.357       .  S
C1751      C1756   1.405       .  A
C1751      C1760   1.403       .  A
C1756      C1757   1.401       .  A
C1756      F1761   1.357       .  S
C1757      C1758   1.409       .  A
C1757      H1762   1.083       .  S
C1758      C1759   1.413       .  A
C1759      C1760   1.399       .  A
C1759      F1763   1.357       .  S
C1760      H1764   1.084       .  S
C1765      C1766   1.403       .  A
C1765      C1770   1.399       .  A
C1765      H1775   1.083       .  S
C1766      C1771   1.471       .  S
C1766      C1767   1.403       .  A
C1767      C1768   1.395       .  A
C1767      F1772   1.358       .  S
C1768      C1769   1.403       .  A
C1768      H1773   1.084       .  S
C1769      C1770   1.406       .  A
C1770      F1774   1.357       .  S
C1771      C1776   1.405       .  A
C1771      C1780   1.400       .  A
C1776      C1777   1.401       .  A
C1776      F1781   1.357       .  S
C1777      C1778   1.405       .  A
C1777      H1782   1.083       .  S
C1778      C1779   1.406       .  A
C1779      C1780   1.394       .  A
C1779      F1783   1.358       .  S
C1780      H1784   1.084       .  S
C1785      C1786   1.401       .  A
C1785      C1790   1.396       .  A
C1785      H1795   1.084       .  S
C1786      C1791   1.472       .  S
C1786      C1787   1.403       .  A
C1787      C1788   1.394       .  A
C1787      F1792   1.358       .  S
C1788      C1789   1.407       .  A
C1788      H1793   1.083       .  S
C1789      C1790   1.412       .  A
C1790      F1794   1.357       .  S
C1791      C1796   1.404       .  A
C1791      C1800   1.398       .  A
C1796      C1797   1.397       .  A
C1796      F1801   1.357       .  S
C1797      C1798   1.407       .  A
C1797      H1802   1.083       .  S
C1798      C1799   1.414       .  A
C1799      C1800   1.394       .  A
C1799      F1803   1.358       .  S
C1800      H1804   1.084       .  S
C1805      C1806   1.401       .  A
C1805      C1810   1.394       .  A
C1805      H1815   1.084       .  S
C1806      C1811   1.467       .  S
C1806      C1807   1.401       .  A
C1807      C1808   1.396       .  A
C1807      F1812   1.357       .  S
C1808      C1809   1.407       .  A
C1808      H1813   1.083       .  S
C1809      C1810   1.408       .  A
C1810      F1814   1.358       .  S
C1811      C1816   1.403       .  A
C1811      C1820   1.400       .  A
C1816      C1817   1.391       .  A
C1816      F1821   1.358       .  S
C1817      C1818   1.404       .  A
C1817      H1822   1.084       .  S
C1818      C1819   1.411       .  A
C1819      C1820   1.398       .  A
C1819      F1823   1.357   1_556  S
C1820      H1824   1.084       .  S
C1825      C1826   1.403       .  A
C1825      C1830   1.397       .  A
C1825      H1835   1.083       .  S
C1826      C1831   1.478       .  S
C1826      C1827   1.403       .  A
C1827      C1828   1.395       .  A
C1827      F1832   1.358       .  S
C1828      C1829   1.408       .  A
C1828      H1833   1.083       .  S
C1829      C1830   1.410       .  A
C1830      F1834   1.357       .  S
C1831      C1836   1.404       .  A
C1831      C1840   1.403       .  A
C1836      C1837   1.393       .  A
C1836      F1841   1.358       .  S
C1837      C1838   1.407       .  A
C1837      H1842   1.083       .  S
C1838      C1839   1.411       .  A
C1839      C1840   1.398       .  A
C1839      F1843   1.357       .  S
C1840      H1844   1.083       .  S
C1845      C1846   1.400       .  A
C1845      C1850   1.390       .  A
C1845      H1855   1.084       .  S
C1846      C1851   1.461       .  S
C1846      C1847   1.400       .  A
C1847      C1848   1.395       .  A
C1847      F1852   1.357       .  S
C1848      C1849   1.408       .  A
C1848      H1853   1.084       .  S
C1849      C1850   1.407       .  A
C1850      F1854   1.358       .  S
C1851      C1856   1.401       .  A
C1851      C1860   1.398       .  A
C1856      C1857   1.393       .  A
C1856      F1861   1.358       .  S
C1857      C1858   1.406       .  A
C1857      H1862   1.083       .  S
C1858      C1859   1.410       .  A
C1859      C1860   1.392       .  A
C1859      F1863   1.358       .  S
C1860      H1864   1.084       .  S
C1865      C1866   1.402       .  A
C1865      C1870   1.394       .  A
C1865      H1875   1.083       .  S
C1866      C1871   1.471       .  S
C1866      C1867   1.403       .  A
C1867      C1868   1.393       .  A
C1867      F1872   1.358       .  S
C1868      C1869   1.407       .  A
C1868      H1873   1.083       .  S
C1869      C1870   1.409       .  A
C1870      F1874   1.357       .  S
C1871      C1876   1.404       .  A
C1871      C1880   1.403       .  A
C1876      C1877   1.390       .  A
C1876      F1881   1.358       .  S
C1877      C1878   1.403       .  A
C1877      H1882   1.083       .  S
C1878      C1879   1.408       .  A
C1879      C1880   1.397       .  A
C1879      F1883   1.358       .  S
C1880      H1884   1.083       .  S
C1885      C1886   1.408       .  A
C1885      C1890   1.401       .  A
C1885      H1895   1.082       .  S
C1886      C1891   1.493       .  S
C1886      C1887   1.411       .  A
C1887      C1888   1.401       .  A
C1887      F1892   1.358       .  S
C1888      C1889   1.403       .  A
C1888      H1893   1.083       .  S
C1889      C1890   1.405       .  A
C1890      F1894   1.357       .  S
C1891      C1896   1.411       .  A
C1891      C1900   1.405       .  A
C1896      C1897   1.405       .  A
C1896      F1901   1.357       .  S
C1897      C1898   1.405       .  A
C1897      H1902   1.083       .  S
C1898      C1899   1.408       .  A
C1899      C1900   1.398       .  A
C1899      F1903   1.358       .  S
C1900      H1904   1.083       .  S
C1905      C1906   1.404       .  A
C1905      C1910   1.400       .  A
C1905      H1915   1.083       .  S
C1906      C1911   1.476       .  S
C1906      C1907   1.406       .  A
C1907      C1908   1.390       .  A
C1907      F1912   1.358       .  S
C1908      C1909   1.403       .  A
C1908      H1913   1.083       .  S
C1909      C1910   1.408       .  A
C1910      F1914   1.357       .  S
C1911      C1916   1.404       .  A
C1911      C1920   1.403       .  A
C1916      C1917   1.391       .  A
C1916      F1921   1.358       .  S
C1917      C1918   1.405       .  A
C1917      H1922   1.083       .  S
C1918      C1919   1.410       .  A
C1919      C1920   1.399       .  A
C1919      F1923   1.358       .  S
C1920      H1924   1.083       .  S
C1925      C1926   1.400       .  A
C1925      C1930   1.393       .  A
C1925      H1935   1.084       .  S
C1926      C1931   1.474       .  S
C1926      C1927   1.403       .  A
C1927      C1928   1.399       .  A
C1927      F1932   1.357       .  S
C1928      C1929   1.409       .  A
C1928      H1933   1.083       .  S
C1929      C1930   1.411       .  A
C1930      F1934   1.358       .  S
C1931      C1936   1.403       .  A
C1931      C1940   1.402       .  A
C1936      C1937   1.397       .  A
C1936      F1941   1.358       .  S
C1937      C1938   1.408       .  A
C1937      H1942   1.083       .  S
C1938      C1939   1.408       .  A
C1939      C1940   1.396       .  A
C1939      F1943   1.357       .  S
C1940      H1944   1.084       .  S
C1945      C1946   1.404   1_556  A
C1945      C1950   1.403       .  A
C1945      H1955   1.083       .  S
C1946      C1951   1.474       .  S
C1946      C1947   1.403       .  A
C1947      C1948   1.389       .  A
C1947      F1952   1.358       .  S
C1948      C1949   1.403   1_554  A
C1948      H1953   1.084       .  S
C1949      C1950   1.409       .  A
C1950      F1954   1.357       .  S
C1951      C1956   1.403       .  A
C1951      C1960   1.402       .  A
C1956      C1957   1.389       .  A
C1956      F1961   1.358   1_554  S
C1957      C1958   1.405       .  A
C1957      H1962   1.083       .  S
C1958      C1959   1.411       .  A
C1959      C1960   1.403       .  A
C1959      F1963   1.357       .  S
C1960      H1964   1.083       .  S
C1965      C1966   1.402       .  A
C1965      C1970   1.399       .  A
C1965      H1975   1.083       .  S
C1966      C1971   1.476       .  S
C1966      C1967   1.403       .  A
C1967      C1968   1.394       .  A
C1967      F1972   1.358       .  S
C1968      C1969   1.407       .  A
C1968      H1973   1.083       .  S
C1969      C1970   1.412       .  A
C1970      F1974   1.357       .  S
C1971      C1976   1.404       .  A
C1971      C1980   1.401       .  A
C1976      C1977   1.396       .  A
C1976      F1981   1.357       .  S
C1977      C1978   1.407       .  A
C1977      H1982   1.083       .  S
C1978      C1979   1.413       .  A
C1979      C1980   1.397       .  A
C1979      F1983   1.358       .  S
C1980      H1984   1.084       .  S
C1985      C1986   1.402       .  A
C1985      C1990   1.394       .  A
C1985      H1995   1.083       .  S
C1986      C1991   1.475       .  S
C1986      C1987   1.404       .  A
C1987      C1988   1.396       .  A
C1987      F1992   1.358       .  S
C1988      C1989   1.407       .  A
C1988      H1993   1.083       .  S
C1989      C1990   1.410       .  A
C1990      F1994   1.358       .  S
C1991      C1996   1.403       .  A
C1991      C2000   1.403       .  A
C1996      C1997   1.394       .  A
C1996      F2001   1.358       .  S
C1997      C1998   1.407       .  A
C1997      H2002   1.083       .  S
C1998      C1999   1.410       .  A
C1999      C2000   1.396       .  A
C1999      F2003   1.358       .  S
C2000      H2004   1.083       .  S
C2005      C2006   1.402       .  A
C2005      C2010   1.394       .  A
C2005      H2015   1.084       .  S
C2006      C2011   1.470       .  S
C2006      C2007   1.403       .  A
C2007      C2008   1.396       .  A
C2007      F2012   1.358       .  S
C2008      C2009   1.405       .  A
C2008      H2013   1.083       .  S
C2009      C2010   1.406       .  A
C2010      F2014   1.358       .  S
C2011      C2016   1.406       .  A
C2011      C2020   1.403       .  A
C2016      C2017   1.390       .  A
C2016      F2021   1.358       .  S
C2017      C2018   1.400       .  A
C2017      H2022   1.084       .  S
C2018      C2019   1.406       .  A
C2019      C2020   1.399       .  A
C2019      F2023   1.358       .  S
C2020      H2024   1.083       .  S
C2025      C2026   1.403       .  A
C2025      C2030   1.397       .  A
C2025      H2035   1.082       .  S
C2026      C2031   1.486       .  S
C2026      C2027   1.408       .  A
C2027      C2028   1.399       .  A
C2027      F2032   1.357       .  S
C2028      C2029   1.407       .  A
C2028      H2033   1.082       .  S
C2029      C2030   1.412       .  A
C2030      F2034   1.358       .  S
C2031      C2036   1.407       .  A
C2031      C2040   1.404       .  A
C2036      C2037   1.399       .  A
C2036      F2041   1.358       .  S
C2037      C2038   1.408       .  A
C2037      H2042   1.082       .  S
C2038      C2039   1.411       .  A
C2039      C2040   1.398       .  A
C2039      F2043   1.357       .  S
C2040      H2044   1.082       .  S
C2045      C2046   1.402       .  A
C2045      C2050   1.392       .  A
C2045      H2055   1.084       .  S
C2046      C2051   1.480       .  S
C2046      C2047   1.409       .  A
C2047      C2048   1.403       .  A
C2047      F2052   1.357       .  S
C2048      C2049   1.402       .  A
C2048      H2053   1.084       .  S
C2049      C2050   1.405       .  A
C2050      F2054   1.359       .  S
C2051      C2056   1.409       .  A
C2051      C2060   1.404       .  A
C2056      C2057   1.400       .  A
C2056      F2061   1.357       .  S
C2057      C2058   1.401       .  A
C2057      H2062   1.084       .  S
C2058      C2059   1.403       .  A
C2059      C2060   1.395       .  A
C2059      F2063   1.358       .  S
C2060      H2064   1.084       .  S
C2065      C2066   1.398       .  A
C2065      C2070   1.392       .  A
C2065      H2075   1.084       .  S
C2066      C2071   1.470       .  S
C2066      C2067   1.403       .  A
C2067      C2068   1.401       .  A
C2067      F2072   1.357       .  S
C2068      C2069   1.408       .  A
C2068      H2073   1.083       .  S
C2069      C2070   1.412       .  A
C2070      F2074   1.358       .  S
C2071      C2076   1.401       .  A
C2071      C2080   1.399       .  A
C2076      C2077   1.400       .  A
C2076      F2081   1.357       .  S
C2077      C2078   1.409       .  A
C2077      H2082   1.083       .  S
C2078      C2079   1.411       .  A
C2079      C2080   1.393       .  A
C2079      F2083   1.358       .  S
C2080      H2084   1.083       .  S
C2085      C2086   1.400       .  A
C2085      C2090   1.396       .  A
C2085      H2095   1.083       .  S
C2086      C2091   1.479       .  S
C2086      C2087   1.405       .  A
C2087      C2088   1.399       .  A
C2087      F2092   1.357       .  S
C2088      C2089   1.407       .  A
C2088      H2093   1.083       .  S
C2089      C2090   1.413       .  A
C2090      F2094   1.358       .  S
C2091      C2096   1.404       .  A
C2091      C2100   1.402       .  A
C2096      C2097   1.396       .  A
C2096      F2101   1.358       .  S
C2097      C2098   1.408       .  A
C2097      H2102   1.083       .  S
C2098      C2099   1.411       .  A
C2099      C2100   1.398       .  A
C2099      F2103   1.357       .  S
C2100      H2104   1.083       .  S
C2105      C2106   1.401       .  A
C2105      C2110   1.398       .  A
C2105      H2115   1.083       .  S
C2106      C2111   1.467       .  S
C2106      C2107   1.403       .  A
C2107      C2108   1.393       .  A
C2107      F2112   1.358       .  S
C2108      C2109   1.404       .  A
C2108      H2113   1.084       .  S
C2109      C2110   1.408       .  A
C2110      F2114   1.357       .  S
C2111      C2116   1.403       .  A
C2111      C2120   1.401       .  A
C2116      C2117   1.392       .  A
C2116      F2121   1.358       .  S
C2117      C2118   1.402       .  A
C2117      H2122   1.084       .  S
C2118      C2119   1.410       .  A
C2119      C2120   1.399       .  A
C2119      F2123   1.358       .  S
C2120      H2124   1.083       .  S
C2125      C2126   1.403       .  A
C2125      C2130   1.399       .  A
C2125      H2135   1.084       .  S
C2126      C2131   1.476       .  S
C2126      C2127   1.402       .  A
C2127      C2128   1.394       .  A
C2127      F2132   1.358       .  S
C2128      C2129   1.409       .  A
C2128      H2133   1.084       .  S
C2129      C2130   1.411       .  A
C2130      F2134   1.357       .  S
C2131      C2136   1.404       .  A
C2131      C2140   1.401       .  A
C2136      C2137   1.397       .  A
C2136      F2141   1.358       .  S
C2137      C2138   1.407       .  A
C2137      H2142   1.084       .  S
C2138      C2139   1.410       .  A
C2139      C2140   1.396       .  A
C2139      F2143   1.357       .  S
C2140      H2144   1.085       .  S
C2145      C2146   1.400       .  A
C2145      C2150   1.395   1_554  A
C2145      H2155   1.084       .  S
C2146      C2151   1.467       .  S
C2146      C2147   1.401       .  A
C2147      C2148   1.392   1_554  A
C2147      F2152   1.358       .  S
C2148      C2149   1.407       .  A
C2148      H2153   1.083       .  S
C2149      C2150   1.411       .  A
C2150      F2154   1.358       .  S
C2151      C2156   1.400       .  A
C2151      C2160   1.401       .  A
C2156      C2157   1.394       .  A
C2156      F2161   1.357       .  S
C2157      C2158   1.407       .  A
C2157      H2162   1.083       .  S
C2158      C2159   1.409       .  A
C2159      C2160   1.393       .  A
C2159      F2163   1.358       .  S
C2160      H2164   1.084       .  S
C2165      C2166   1.402       .  A
C2165      C2170   1.400       .  A
C2165      H2175   1.083       .  S
C2166      C2171   1.467       .  S
C2166      C2167   1.401       .  A
C2167      C2168   1.387       .  A
C2167      F2172   1.358       .  S
C2168      C2169   1.405       .  A
C2168      H2173   1.083       .  S
C2169      C2170   1.410       .  A
C2170      F2174   1.357       .  S
C2171      C2176   1.401       .  A
C2171      C2180   1.400       .  A
C2176      C2177   1.391       .  A
C2176      F2181   1.358       .  S
C2177      C2178   1.406       .  A
C2177      H2182   1.083       .  S
C2178      C2179   1.412       .  A
C2179      C2180   1.396       .  A
C2179      F2183   1.357       .  S
C2180      H2184   1.083       .  S
C2185      C2186   1.401       .  A
C2185      C2190   1.396       .  A
C2185      H2195   1.084       .  S
C2186      C2191   1.476       .  S
C2186      C2187   1.404       .  A
C2187      C2188   1.396       .  A
C2187      F2192   1.358       .  S
C2188      C2189   1.407       .  A
C2188      H2193   1.083       .  S
C2189      C2190   1.412       .  A
C2190      F2194   1.358       .  S
C2191      C2196   1.406       .  A
C2191      C2200   1.400       .  A
C2196      C2197   1.399       .  A
C2196      F2201   1.357       .  S
C2197      C2198   1.406       .  A
C2197      H2202   1.083       .  S
C2198      C2199   1.411       .  A
C2199      C2200   1.393       .  A
C2199      F2203   1.358       .  S
C2200      H2204   1.084       .  S
C2205      C2206   1.399       .  A
C2205      C2210   1.392       .  A
C2205      H2215   1.083       .  S
C2206      C2211   1.469       .  S
C2206      C2207   1.402       .  A
C2207      C2208   1.395       .  A
C2207      F2212   1.357       .  S
C2208      C2209   1.407       .  A
C2208      H2213   1.083       .  S
C2209      C2210   1.413       .  A
C2210      F2214   1.358       .  S
C2211      C2216   1.403       .  A
C2211      C2220   1.400       .  A
C2216      C2217   1.392       .  A
C2216      F2221   1.358       .  S
C2217      C2218   1.406       .  A
C2217      H2222   1.083       .  S
C2218      C2219   1.412       .  A
C2219      C2220   1.396       .  A
C2219      F2223   1.357       .  S
C2220      H2224   1.083       .  S
C2225      C2226   1.404       .  A
C2225      C2230   1.394       .  A
C2225      H2235   1.083       .  S
C2226      C2231   1.475       .  S
C2226      C2227   1.404       .  A
C2227      C2228   1.396       .  A
C2227      F2232   1.357       .  S
C2228      C2229   1.406       .  A
C2228      H2233   1.083       .  S
C2229      C2230   1.405       .  A
C2230      F2234   1.358       .  S
C2231      C2236   1.405   1_556  A
C2231      C2240   1.401   1_556  A
C2236      C2237   1.395       .  A
C2236      F2241   1.358   1_554  S
C2237      C2238   1.405       .  A
C2237      H2242   1.082       .  S
C2238      C2239   1.411       .  A
C2239      C2240   1.395       .  A
C2239      F2243   1.358       .  S
C2240      H2244   1.083       .  S
C2245      C2246   1.404       .  A
C2245      C2250   1.398       .  A
C2245      H2255   1.083       .  S
C2246      C2251   1.472       .  S
C2246      C2247   1.404       .  A
C2247      C2248   1.393       .  A
C2247      F2252   1.358       .  S
C2248      C2249   1.403       .  A
C2248      H2253   1.084       .  S
C2249      C2250   1.404       .  A
C2250      F2254   1.357       .  S
C2251      C2256   1.405       .  A
C2251      C2260   1.401       .  A
C2256      C2257   1.398       .  A
C2256      F2261   1.357       .  S
C2257      C2258   1.403       .  A
C2257      H2262   1.083       .  S
C2258      C2259   1.405       .  A
C2259      C2260   1.393       .  A
C2259      F2263   1.358       .  S
C2260      H2264   1.084       .  S
C2265      C2266   1.401       .  A
C2265      C2270   1.398       .  A
C2265      H2275   1.083       .  S
C2266      C2271   1.479       .  S
C2266      C2267   1.404       .  A
C2267      C2268   1.401       .  A
C2267      F2272   1.357       .  S
C2268      C2269   1.410       .  A
C2268      H2273   1.083       .  S
C2269      C2270   1.412       .  A
C2270      F2274   1.357       .  S
C2271      C2276   1.404       .  A
C2271      C2280   1.400       .  A
C2276      C2277   1.401       .  A
C2276      F2281   1.357       .  S
C2277      C2278   1.409       .  A
C2277      H2282   1.083       .  S
C2278      C2279   1.413       .  A
C2279      C2280   1.398       .  A
C2279      F2283   1.357       .  S
C2280      H2284   1.083       .  S
C2285      C2286   1.404       .  A
C2285      C2290   1.401       .  A
C2285      H2295   1.083       .  S
C2286      C2291   1.473       .  S
C2286      C2287   1.404       .  A
C2287      C2288   1.392       .  A
C2287      F2292   1.358       .  S
C2288      C2289   1.403       .  A
C2288      H2293   1.084       .  S
C2289      C2290   1.408       .  A
C2290      F2294   1.357       .  S
C2291      C2296   1.404       .  A
C2291      C2300   1.404       .  A
C2296      C2297   1.393       .  A
C2296      F2301   1.358       .  S
C2297      C2298   1.404       .  A
C2297      H2302   1.084       .  S
C2298      C2299   1.407       .  A
C2299      C2300   1.401       .  A
C2299      F2303   1.357   1_556  S
C2300      H2304   1.083       .  S
C2305      C2306   1.404       .  A
C2305      C2310   1.398       .  A
C2305      H2315   1.083       .  S
C2306      C2311   1.478       .  S
C2306      C2307   1.403       .  A
C2307      C2308   1.393       .  A
C2307      F2312   1.357       .  S
C2308      C2309   1.408       .  A
C2308      H2313   1.083       .  S
C2309      C2310   1.410       .  A
C2310      F2314   1.357       .  S
C2311      C2316   1.405       .  A
C2311      C2320   1.402       .  A
C2316      C2317   1.397       .  A
C2316      F2321   1.357       .  S
C2317      C2318   1.407       .  A
C2317      H2322   1.083       .  S
C2318      C2319   1.410       .  A
C2319      C2320   1.395       .  A
C2319      F2323   1.358       .  S
C2320      H2324   1.084       .  S
C2325      C2326   1.399       .  A
C2325      C2330   1.389       .  A
C2325      H2335   1.084       .  S
C2326      C2331   1.480       .  S
C2326      C2327   1.406       .  A
C2327      C2328   1.406       .  A
C2327      F2332   1.357       .  S
C2328      C2329   1.409   1_554  A
C2328      H2333   1.083   1_554  S
C2329      C2330   1.414   1_556  A
C2330      F2334   1.358       .  S
C2331      C2336   1.406   1_554  A
C2331      C2340   1.405       .  A
C2336      C2337   1.393   1_556  A
C2336      F2341   1.358       .  S
C2337      C2338   1.403       .  A
C2337      H2342   1.084   1_554  S
C2338      C2339   1.408       .  A
C2339      C2340   1.403       .  A
C2339      F2343   1.357       .  S
C2340      H2344   1.083       .  S
C2345      C2346   1.402       .  A
C2345      C2350   1.396       .  A
C2345      H2355   1.083       .  S
C2346      C2351   1.479       .  S
C2346      C2347   1.405       .  A
C2347      C2348   1.398       .  A
C2347      F2352   1.357       .  S
C2348      C2349   1.408       .  A
C2348      H2353   1.082       .  S
C2349      C2350   1.412       .  A
C2350      F2354   1.358       .  S
C2351      C2356   1.406       .  A
C2351      C2360   1.401       .  A
C2356      C2357   1.399       .  A
C2356      F2361   1.357       .  S
C2357      C2358   1.407       .  A
C2357      H2362   1.083       .  S
C2358      C2359   1.413       .  A
C2359      C2360   1.395       .  A
C2359      F2363   1.358       .  S
C2360      H2364   1.083       .  S
C2365      C2366   1.402       .  A
C2365      C2370   1.393       .  A
C2365      H2375   1.084       .  S
C2366      C2371   1.473       .  S
C2366      C2367   1.405       .  A
C2367      C2368   1.399       .  A
C2367      F2372   1.357       .  S
C2368      C2369   1.404       .  A
C2368      H2373   1.083       .  S
C2369      C2370   1.405       .  A
C2370      F2374   1.358       .  S
C2371      C2376   1.404       .  A
C2371      C2380   1.403       .  A
C2376      C2377   1.398       .  A
C2376      F2381   1.357       .  S
C2377      C2378   1.405       .  A
C2377      H2382   1.083       .  S
C2378      C2379   1.406       .  A
C2379      C2380   1.394       .  A
C2379      F2383   1.358       .  S
C2380      H2384   1.083       .  S
C2385      C2386   1.407       .  A
C2385      C2390   1.401       .  A
C2385      H2395   1.083       .  S
C2386      C2391   1.490       .  S
C2386      C2387   1.407       .  A
C2387      C2388   1.398       .  A
C2387      F2392   1.357       .  S
C2388      C2389   1.407       .  A
C2388      H2393   1.083       .  S
C2389      C2390   1.411       .  A
C2390      F2394   1.358   1_655  S
C2391      C2396   1.410       .  A
C2391      C2400   1.402       .  A
C2396      C2397   1.402       .  A
C2396      F2401   1.357       .  S
C2397      C2398   1.406       .  A
C2397      H2402   1.083       .  S
C2398      C2399   1.414       .  A
C2399      C2400   1.396       .  A
C2399      F2403   1.358       .  S
C2400      H2404   1.083       .  S
C2405      C2406   1.400       .  A
C2405      C2410   1.395       .  A
C2405      H2415   1.083       .  S
C2406      C2411   1.468       .  S
C2406      C2407   1.404       .  A
C2407      C2408   1.392       .  A
C2407      F2412   1.358       .  S
C2408      C2409   1.404       .  A
C2408      H2413   1.083       .  S
C2409      C2410   1.409       .  A
C2410      F2414   1.357       .  S
C2411      C2416   1.403       .  A
C2411      C2420   1.398       .  A
C2416      C2417   1.396       .  A
C2416      F2421   1.358       .  S
C2417      C2418   1.406       .  A
C2417      H2422   1.083       .  S
C2418      C2419   1.411       .  A
C2419      C2420   1.391       .  A
C2419      F2423   1.358       .  S
C2420      H2424   1.083       .  S
C2425      C2426   1.398       .  A
C2425      C2430   1.393       .  A
C2425      H2435   1.084       .  S
C2426      C2431   1.461       .  S
C2426      C2427   1.402       .  A
C2427      C2428   1.391       .  A
C2427      F2432   1.358       .  S
C2428      C2429   1.405       .  A
C2428      H2433   1.084       .  S
C2429      C2430   1.410       .  A
C2430      F2434   1.357       .  S
C2431      C2436   1.400       .  A
C2431      C2440   1.399       .  A
C2436      C2437   1.391       .  A
C2436      F2441   1.358       .  S
C2437      C2438   1.407       .  A
C2437      H2442   1.083       .  S
C2438      C2439   1.410       .  A
C2439      C2440   1.393       .  A
C2439      F2443   1.358       .  S
C2440      H2444   1.084       .  S
C2445      C2446   1.404       .  A
C2445      C2450   1.392       .  A
C2445      H2455   1.083       .  S
C2446      C2451   1.477       .  S
C2446      C2447   1.406       .  A
C2447      C2448   1.399       .  A
C2447      F2452   1.357       .  S
C2448      C2449   1.406       .  A
C2448      H2453   1.083       .  S
C2449      C2450   1.404       .  A
C2450      F2454   1.358       .  S
C2451      C2456   1.408       .  A
C2451      C2460   1.405       .  A
C2456      C2457   1.395       .  A
C2456      F2461   1.357       .  S
C2457      C2458   1.401       .  A
C2457      H2462   1.084       .  S
C2458      C2459   1.404       .  A
C2459      C2460   1.397       .  A
C2459      F2463   1.358       .  S
C2460      H2464   1.084       .  S
C2465      C2466   1.401       .  A
C2465      C2470   1.396       .  A
C2465      H2475   1.085       .  S
C2466      C2471   1.473       .  S
C2466      C2467   1.403       .  A
C2467      C2468   1.397       .  A
C2467      F2472   1.357       .  S
C2468      C2469   1.406       .  A
C2468      H2473   1.084       .  S
C2469      C2470   1.409       .  A
C2470      F2474   1.358       .  S
C2471      C2476   1.404       .  A
C2471      C2480   1.400       .  A
C2476      C2477   1.397       .  A
C2476      F2481   1.358       .  S
C2477      C2478   1.406       .  A
C2477      H2482   1.084       .  S
C2478      C2479   1.411       .  A
C2479      C2480   1.397       .  A
C2479      F2483   1.357       .  S
C2480      H2484   1.085       .  S
C2485      C2486   1.403       .  A
C2485      C2490   1.396       .  A
C2485      H2495   1.083       .  S
C2486      C2491   1.485       .  S
C2486      C2487   1.406       .  A
C2487      C2488   1.402       .  A
C2487      F2492   1.357       .  S
C2488      C2489   1.409       .  A
C2488      H2493   1.083       .  S
C2489      C2490   1.411       .  A
C2490      F2494   1.357       .  S
C2491      C2496   1.406       .  A
C2491      C2500   1.404       .  A
C2496      C2497   1.400       .  A
C2496      F2501   1.357       .  S
C2497      C2498   1.408       .  A
C2497      H2502   1.084       .  S
C2498      C2499   1.410       .  A
C2499      C2500   1.398       .  A
C2499      F2503   1.357       .  S
C2500      H2504   1.085       .  S
C2505      C2506   1.401       .  A
C2505      C2510   1.389       .  A
C2505      H2515   1.084       .  S
C2506      C2511   1.463       .  S
C2506      C2507   1.401       .  A
C2507      C2508   1.393       .  A
C2507      F2512   1.357       .  S
C2508      C2509   1.406       .  A
C2508      H2513   1.083       .  S
C2509      C2510   1.407       .  A
C2510      F2514   1.358       .  S
C2511      C2516   1.402       .  A
C2511      C2520   1.400       .  A
C2516      C2517   1.389       .  A
C2516      F2521   1.358       .  S
C2517      C2518   1.405       .  A
C2517      H2522   1.083       .  S
C2518      C2519   1.409       .  A
C2519      C2520   1.393       .  A
C2519      F2523   1.358       .  S
C2520      H2524   1.083       .  S
C2525      C2526   1.398       .  A
C2525      C2530   1.394       .  A
C2525      H2535   1.083       .  S
C2526      C2531   1.462       .  S
C2526      C2527   1.402       .  A
C2527      C2528   1.390       .  A
C2527      F2532   1.358       .  S
C2528      C2529   1.405       .  A
C2528      H2533   1.083       .  S
C2529      C2530   1.412       .  A
C2530      F2534   1.357       .  S
C2531      C2536   1.401       .  A
C2531      C2540   1.397       .  A
C2536      C2537   1.395       .  A
C2536      F2541   1.357       .  S
C2537      C2538   1.407       .  A
C2537      H2542   1.083       .  S
C2538      C2539   1.412       .  A
C2539      C2540   1.388       .  A
C2539      F2543   1.358       .  S
C2540      H2544   1.084       .  S
C2545      C2546   1.403       .  A
C2545      C2550   1.398       .  A
C2545      H2555   1.083       .  S
C2546      C2551   1.472       .  S
C2546      C2547   1.403       .  A
C2547      C2548   1.395       .  A
C2547      F2552   1.358       .  S
C2548      C2549   1.405       .  A
C2548      H2553   1.084       .  S
C2549      C2550   1.407       .  A
C2550      F2554   1.357       .  S
C2551      C2556   1.404       .  A
C2551      C2560   1.403       .  A
C2556      C2557   1.394       .  A
C2556      F2561   1.358       .  S
C2557      C2558   1.403       .  A
C2557      H2562   1.084       .  S
C2558      C2559   1.407       .  A
C2559      C2560   1.399       .  A
C2559      F2563   1.358       .  S
C2560      H2564   1.084       .  S
C2565      C2566   1.402       .  A
C2565      C2570   1.397       .  A
C2565      H2575   1.084       .  S
C2566      C2571   1.466       .  S
C2566      C2567   1.404       .  A
C2567      C2568   1.391       .  A
C2567      F2572   1.358       .  S
C2568      C2569   1.400       .  A
C2568      H2573   1.084       .  S
C2569      C2570   1.405       .  A
C2570      F2574   1.357       .  S
C2571      C2576   1.403       .  A
C2571      C2580   1.401       .  A
C2576      C2577   1.398       .  A
C2576      F2581   1.357       .  S
C2577      C2578   1.405       .  A
C2577      H2582   1.084       .  S
C2578      C2579   1.404       .  A
C2579      C2580   1.391       .  A
C2579      F2583   1.358       .  S
C2580      H2584   1.084       .  S
C2585      C2586   1.403       .  A
C2585      C2590   1.398       .  A
C2585      H2595   1.083       .  S
C2586      C2591   1.478       .  S
C2586      C2587   1.402       .  A
C2587      C2588   1.398       .  A
C2587      F2592   1.357       .  S
C2588      C2589   1.409       .  A
C2588      H2593   1.083       .  S
C2589      C2590   1.411       .  A
C2590      F2594   1.357       .  S
C2591      C2596   1.403       .  A
C2591      C2600   1.403       .  A
C2596      C2597   1.395       .  A
C2596      F2601   1.358       .  S
C2597      C2598   1.407       .  A
C2597      H2602   1.083       .  S
C2598      C2599   1.412       .  A
C2599      C2600   1.402       .  A
C2599      F2603   1.357       .  S
C2600      H2604   1.083       .  S
C2605      C2606   1.404       .  A
C2605      C2610   1.400       .  A
C2605      H2615   1.084       .  S
C2606      C2611   1.481       .  S
C2606      C2607   1.403       .  A
C2607      C2608   1.395       .  A
C2607      F2612   1.358       .  S
C2608      C2609   1.409       .  A
C2608      H2613   1.083       .  S
C2609      C2610   1.410       .  A
C2610      F2614   1.357       .  S
C2611      C2616   1.405       .  A
C2611      C2620   1.402       .  A
C2616      C2617   1.398       .  A
C2616      F2621   1.358       .  S
C2617      C2618   1.409       .  A
C2617      H2622   1.083       .  S
C2618      C2619   1.411       .  A
C2619      C2620   1.397       .  A
C2619      F2623   1.357       .  S
C2620      H2624   1.084       .  S
