geometry optimzed in LAMMPS
_audit_creation_date              2020-12-01 
_audit_creation_method            'lammps2cif' 
_symmetry_space_group_name_H-M    'P1' 
_symmetry_Int_Tables_number       1 
_symmetry_cell_setting            triclinic 
loop_ 
_symmetry_equiv_pos_as_xyz 
  x,y,z 
_cell_length_a                    35.57258313 
_cell_length_b                    35.5482927528779 
_cell_length_c                    42.493615457810236 
_cell_angle_alpha                 90.66436503963787 
_cell_angle_beta                  90.64468049861375 
_cell_angle_gamma                 88.64899122936288 
loop_ 
_atom_site_label 
_atom_site_type_symbol 
_atom_site_fract_x 
_atom_site_fract_y 
_atom_site_fract_z 
_atom_site_charge 
O1          O  0.59782709  0.68362829  0.43215838    -0.82500
C2          C  0.56077422  0.73436115  0.05172373     0.96800
O3          O  0.59434076  0.73063496  0.04241620    -0.71600
O4          O  0.61308995  0.66290264  0.02132615    -0.75200
Al5        Al  0.61548854  0.71176665  0.00358120     1.49000
C6          C  0.61150449  0.63330535  0.00483092     0.92100
O7          O  0.51977966  0.65321909  0.48480722    -0.81500
O8          O  0.52743134  0.75464072  0.44698639    -0.75000
Al9        Al  0.55888712  0.66990943  0.45942749     1.90100
O10         O  0.48966871  0.70790480  0.48793643    -0.74100
O11         O  0.56368029  0.78563418  0.49705612    -0.73900
O12         O  0.53347125  0.73328486  0.03279053    -0.79600
O13         O  0.61971882  0.76039501  0.48954896    -0.77800
O14         O  0.56704691  0.70864107  0.48506722    -1.13900
O15         O  0.64046284  0.69258180  0.46928332    -0.73100
C16         C  0.63187410  0.68550054  0.44070954     0.97600
C17         C  0.49046103  0.67235229  0.49111305     0.94000
Al18       Al  0.53062766  0.74341495  0.49072798     1.55600
O19         O  0.59133352  0.63425706  0.47993944    -0.77800
C20         C  0.59895558  0.78868300  0.49525958     0.98200
C21         C  0.51803614  0.72978765  0.42713742     0.93000
O22         O  0.52442246  0.69541089  0.43224347    -0.83100
O23         O  0.71536290  0.57119017  0.35475117    -0.82500
C24         C  0.76463345  0.53653129  0.23201252     0.96800
O25         O  0.76081816  0.56990573  0.24282875    -0.71600
O26         O  0.69518868  0.58916059  0.26579383    -0.75200
Al27       Al  0.74405094  0.58927764  0.28361441     1.49000
C28         C  0.66540600  0.58526075  0.28088112     0.92100
O29         O  0.68541063  0.49648084  0.29659153    -0.81500
O30         O  0.78743255  0.50279887  0.33731198    -0.75000
Al31       Al  0.70204679  0.53402990  0.32494430     1.90100
O32         O  0.73996707  0.46638297  0.29405399    -0.74100
O33         O  0.81726680  0.54069312  0.28730163    -0.73900
O34         O  0.76573874  0.50859950  0.24992618    -0.79600
O35         O  0.79378002  0.59644824  0.29859064    -0.77800
O36         O  0.74061054  0.54405881  0.30054563    -1.13900
O37         O  0.72651123  0.61637797  0.32128429    -0.73100
C38         C  0.71808732  0.60573425  0.34882141     0.97600
C39         C  0.70460558  0.46744004  0.28938417     0.94000
Al40       Al  0.77504237  0.50776880  0.29314444     1.55600
O41         O  0.66591637  0.56733437  0.30614448    -0.77800
C42         C  0.82109736  0.57586975  0.29004091     0.98200
C43         C  0.76273855  0.49251146  0.35653812     0.93000
O44         O  0.72824567  0.49824782  0.35070372    -0.83100
O45         O  0.53047785  0.27892966  0.18181742    -0.82500
C46         C  0.55998693  0.24150545  0.30311353     0.96800
O47         O  0.53371978  0.24032727  0.28312245    -0.71600
O48         O  0.49632161  0.26934138  0.23637166    -0.75200
Al49       Al  0.53631452  0.23189297  0.23984133     1.49000
C50         C  0.49628778  0.30488429  0.23954953     0.92100
O51         O  0.59914945  0.33797909  0.22869202    -0.81500
O52         O  0.64667791  0.27354206  0.21897711    -0.75000
Al53       Al  0.56541702  0.30312534  0.20910517     1.90100
O54         O  0.61534322  0.30960382  0.27164231    -0.74100
O55         O  0.62499518  0.20907072  0.24351494    -0.73900
O56         O  0.59367445  0.24622700  0.29472150    -0.79600
O57         O  0.56801923  0.18778877  0.24698392    -0.77800
O58         O  0.57309483  0.26457726  0.23492536    -1.13900
O59         O  0.53413398  0.21975285  0.19572273    -0.73100
C60         C  0.52437579  0.24474462  0.17610843     0.97600
C61         C  0.61620398  0.33822128  0.25478065     0.94000
Al62       Al  0.61654068  0.25983733  0.25545062     1.55600
O63         O  0.52593895  0.32286518  0.23451187    -0.77800
C64         C  0.60319518  0.18234928  0.24781947     0.98200
C65         C  0.63799409  0.28109193  0.19046457     0.93000
O66         O  0.60396788  0.28587473  0.18217133    -0.83100
O67         O  0.71322101  0.46361706  0.10351461    -0.82500
C68         C  0.76010019  0.43857043  0.48256268     0.96800
O69         O  0.75505341  0.46461521  0.50230600    -0.71600
O70         O  0.72359141  0.49914714  0.04762571    -0.75200
Al71       Al  0.76240179  0.46023565  0.04607149     1.49000
C72         C  0.68829200  0.49729426  0.04388546     0.92100
O73         O  0.65925740  0.39485581  0.05187196    -0.81500
O74         O  0.72228240  0.34760950  0.06615319    -0.75000
Al75       Al  0.69116522  0.42838003  0.07486326     1.90100
O76         O  0.69248794  0.37744866  0.01099983    -0.74100
O77         O  0.78881617  0.37285614  0.04946169    -0.73900
O78         O  0.75738589  0.40438815  0.49080773    -0.79600
O79         O  0.80797007  0.42971338  0.04066957    -0.77800
O80         O  0.73127081  0.42211224  0.05068999    -1.13900
O81         O  0.77251263  0.46450949  0.09016163    -0.73100
C82         C  0.74653966  0.47332983  0.10916434     0.97600
C83         C  0.66148143  0.37961909  0.02496903     0.94000
Al84       Al  0.74012182  0.37810714  0.03149845     1.55600
O85         O  0.67123759  0.46749555  0.04954541    -0.77800
C86         C  0.81472697  0.39474356  0.04276132     0.98200
C87         C  0.71275549  0.35594043  0.09419740     0.93000
O88         O  0.70743430  0.38984371  0.10244915    -0.83100
O89         O  0.41881258  0.28742323  0.43002996    -0.82500
C90         C  0.46470158  0.24105710  0.05090224     0.96800
O91         O  0.43084679  0.24580706  0.04177043    -0.71600
O92         O  0.41012521  0.31018044  0.01836740    -0.75200
Al93       Al  0.40777637  0.26069391  0.00225568     1.49000
C94         C  0.41209972  0.33923541  0.00208084     0.92100
O95         O  0.49711341  0.32015612  0.48308113    -0.81500
O96         O  0.49010233  0.21677562  0.44639033    -0.75000
Al97       Al  0.45758180  0.30212607  0.45762937     1.90100
O98         O  0.52719736  0.26585726  0.48705272    -0.74100
O99         O  0.45410145  0.18743884  0.49756635    -0.73900
O100        O  0.49099476  0.23883312  0.03139634    -0.79600
O101        O  0.39747905  0.21095073  0.48949891    -0.77800
O102        O  0.44967209  0.26419813  0.48347066    -1.13900
O103        O  0.37590195  0.27739210  0.46570394    -0.73100
C104        C  0.38480755  0.28436040  0.43742870     0.97600
C105        C  0.52710067  0.30159230  0.48861359     0.94000
Al106      Al  0.48660775  0.23016989  0.49025032     1.55600
O107        O  0.42549805  0.33877899  0.47733063    -0.77800
C108        C  0.41877472  0.18344756  0.49642933     0.98200
C109        C  0.49890147  0.24114794  0.42638083     0.93000
O110        O  0.49153302  0.27553605  0.43114389    -0.83100
O111        O  0.31030803  0.39835127  0.35147186    -0.82500
C112        C  0.26526301  0.44243809  0.22944686     0.96800
O113        O  0.26858940  0.40852042  0.23833421    -0.71600
O114        O  0.33246624  0.38536107  0.26216211    -0.75200
Al115      Al  0.28323414  0.38606279  0.27814216     1.49000
C116        C  0.36204558  0.38716736  0.27836619     0.92100
O117        O  0.34526667  0.47531934  0.29969551    -0.81500
O118        O  0.24232613  0.47180790  0.33594703    -0.75000
Al119      Al  0.32621705  0.43657835  0.32462182     1.90100
O120        O  0.29171732  0.50687776  0.29581124    -0.74100
O121        O  0.21064565  0.43695043  0.28432686    -0.73900
O122        O  0.26343398  0.46915717  0.24898837    -0.79600
O123        O  0.23308547  0.37967447  0.29044018    -0.77800
O124        O  0.28772743  0.42986926  0.29819578    -1.13900
O125        O  0.29831561  0.35590012  0.31465739    -0.73100
C126        C  0.30570025  0.36449206  0.34323459     0.97600
C127        C  0.32729066  0.50544675  0.29344274     0.94000
Al128      Al  0.25460949  0.46781160  0.29205049     1.55600
O129        O  0.36154463  0.40294412  0.30494700    -0.77800
C130        C  0.20581737  0.40179352  0.28487773     0.98200
C131        C  0.26732202  0.48091807  0.35589978     0.93000
O132        O  0.30128961  0.47189893  0.35144472    -0.83100
O133        O  0.49499243  0.68808469  0.18100128    -0.82500
C134        C  0.46729275  0.73256599  0.30009817     0.96800
O135        O  0.49341714  0.73072163  0.28055637    -0.71600
O136        O  0.53106956  0.70145919  0.23479568    -0.75200
Al137      Al  0.49072694  0.73833091  0.23764034     1.49000
C138        C  0.53120548  0.66649880  0.24000069     0.92100
O139        O  0.42971031  0.63156739  0.23036010    -0.81500
O140        O  0.38011269  0.69684439  0.21564684    -0.75000
Al141      Al  0.46166208  0.66495056  0.20899044     1.90100
O142        O  0.40948441  0.66473611  0.27040507    -0.74100
O143        O  0.40288342  0.76230319  0.23725470    -0.73900
O144        O  0.43310880  0.72971441  0.29133435    -0.79600
O145        O  0.45947190  0.78316525  0.24446297    -0.77800
O146        O  0.45371163  0.70555863  0.23290703    -1.13900
O147        O  0.49241471  0.74815887  0.19350645    -0.73100
C148        C  0.50209339  0.72175134  0.17477029     0.97600
C149        C  0.41244543  0.63391476  0.25593043     0.94000
Al150      Al  0.41003528  0.71288297  0.25204434     1.55600
O151        O  0.50162981  0.64808569  0.23539549    -0.77800
C152        C  0.42435074  0.78895221  0.24345556     0.98200
C153        C  0.38917988  0.68710479  0.18774275     0.93000
O154        O  0.42278622  0.67858713  0.18101447    -0.83100
O155        O  0.30737397  0.50968900  0.09870614    -0.82500
C156        C  0.25941581  0.53956705  0.48074958     0.96800
O157        O  0.26341973  0.51221134  0.49908786    -0.71600
O158        O  0.29437015  0.47351388  0.04437672    -0.75200
Al159      Al  0.25686120  0.51357338  0.04179643     1.49000
C160        C  0.32956361  0.47383459  0.04014983     0.92100
O161        O  0.36230964  0.57597208  0.04822468    -0.81500
O162        O  0.29905533  0.62497766  0.06311089    -0.75000
Al163      Al  0.32976762  0.54358081  0.07026002     1.90100
O164        O  0.32882698  0.59499677  0.00790571    -0.74100
O165        O  0.23230468  0.60134878  0.04417198    -0.73900
O166        O  0.26058705  0.57331575  0.49097314    -0.79600
O167        O  0.21213644  0.54461402  0.03558293    -0.77800
O168        O  0.28917021  0.55091016  0.04634886    -1.13900
O169        O  0.24735891  0.51187077  0.08611693    -0.73100
C170        C  0.27360260  0.50326499  0.10531317     0.97600
C171        C  0.35984814  0.59270561  0.02230604     0.94000
Al172      Al  0.28110641  0.59472078  0.02744167     1.55600
O173        O  0.34734423  0.50385035  0.04413908    -0.77800
C174        C  0.20592680  0.57962240  0.03763851     0.98200
C175        C  0.30909666  0.61613108  0.09096547     0.93000
O176        O  0.31554685  0.58232441  0.09819383    -0.83100
O177        O  0.10467099  0.19051341  0.17701697    -0.82500
C178        C  0.05528134  0.23454303  0.29832409     0.96800
O179        O  0.08946190  0.22992627  0.29054060    -0.71600
O180        O  0.11205978  0.16618886  0.26668345    -0.75200
Al181      Al  0.11378631  0.21552587  0.25135428     1.49000
C182        C  0.11259010  0.13704966  0.24988809     0.92100
O183        O  0.02541431  0.15505363  0.22638448    -0.81500
O184        O  0.03113593  0.25879764  0.19154244    -0.75000
Al185      Al  0.06523959  0.17422320  0.20259309     1.90100
O186        O  0.99401156  0.20878279  0.23003567    -0.74100
O187        O  0.06476243  0.28916699  0.24449332    -0.73900
O188        O  0.02977478  0.23601662  0.27782770    -0.79600
O189        O  0.12205824  0.26597246  0.24035718    -0.77800
O190        O  0.07111386  0.21223535  0.22968297    -1.13900
O191        O  0.14569192  0.20031037  0.21543380    -0.73100
C192        C  0.13831518  0.19377721  0.18639921     0.97600
C193        C  0.99524068  0.17314367  0.23243004     0.94000
Al194      Al  0.03334405  0.24562645  0.23519312     1.55600
O195        O  0.09831231  0.13796122  0.22265934    -0.77800
C196        C  0.10007193  0.29342446  0.24581161     0.98200
C197        C  0.02171173  0.23415387  0.17141300     0.93000
O198        O  0.03081028  0.20003310  0.17532779    -0.83100
O199        O  0.21388245  0.07784615  0.10099274    -0.82500
C200        C  0.25797074  0.02948406  0.47903197     0.96800
O201        O  0.25448512  0.06388179  0.48741638    -0.71600
O202        O  0.19058706  0.08782243  0.01104178    -0.75200
Al203      Al  0.23989708  0.08840750  0.02795796     1.49000
C204        C  0.16124580  0.08744706  0.02714727     0.92100
O205        O  0.17834710  0.99973666  0.04876473    -0.81500
O206        O  0.28236577  0.00534620  0.08499587    -0.75000
Al207      Al  0.19764196  0.03906049  0.07392697     1.90100
O208        O  0.23162693  0.96763050  0.04586526    -0.74100
O209        O  0.31190987  0.03808140  0.03336611    -0.73900
O210        O  0.25739259  0.00377553  0.49884675    -0.79600
O211        O  0.28998345  0.09527841  0.04155321    -0.77800
O212        O  0.23554212  0.04523490  0.04787783    -1.13900
O213        O  0.22424475  0.11975378  0.06453028    -0.73100
C214        C  0.21760577  0.11165226  0.09314112     0.97600
C215        C  0.19603602  0.96942850  0.04254844     0.94000
Al216      Al  0.26827552  0.00724466  0.04168547     1.55600
O217        O  0.16190316  0.07231375  0.05379583    -0.77800
C218        C  0.31690814  0.07324190  0.03474713     0.98200
C219        C  0.25813832  0.99684974  0.10504808     0.93000
O220        O  0.22369305  0.00457121  0.10072750    -0.83100
O221        O  0.03386852  0.78022091  0.42215356    -0.82500
C222        C  0.06147771  0.73773632  0.04404774     0.96800
O223        O  0.03457890  0.74414654  0.02524759    -0.71600
O224        O  0.99677346  0.77377374  0.97828356    -0.75200
Al225      Al  0.03607882  0.73363403  0.48070068     1.49000
C226        C  0.99980252  0.80794528  0.47973631     0.92100
O227        O  0.10300411  0.83573521  0.47232219    -0.81500
O228        O  0.14918191  0.77130745  0.46004816    -0.75000
Al229      Al  0.06903032  0.80317272  0.45041100     1.90100
O230        O  0.11923446  0.80490598  0.01528436    -0.74100
O231        O  0.12222392  0.70745818  0.97884415    -0.73900
O232        O  0.09538999  0.73896752  0.03485473    -0.79600
O233        O  0.06573937  0.68826167  0.48820741    -0.77800
O234        O  0.07459702  0.76408207  0.47565433    -1.13900
O235        O  0.03354243  0.72123119  0.43685450    -0.73100
C236        C  0.02565132  0.74632165  0.41680432     0.97600
C237        C  0.11821544  0.83544433  0.00056844     0.94000
Al238      Al  0.11772848  0.75661749  0.99584734     1.55600
O239        O  0.03032839  0.82426726  0.47530594    -0.77800
C240        C  0.10049574  0.68084663  0.48603454     0.98200
C241        C  0.14079032  0.77926519  0.43161873     0.93000
O242        O  0.10706097  0.78526351  0.42346731    -0.83100
O243        O  0.21501491  0.96423224  0.34900166    -0.82500
C244        C  0.25443454  0.93981703  0.22810837     0.96800
O245        O  0.25216874  0.96508475  0.24871427    -0.71600
O246        O  0.22398552  0.00074536  0.29585877    -0.75200
Al247      Al  0.26169741  0.96057995  0.29113211     1.49000
C248        C  0.18863752  0.99981776  0.29101973     0.92100
O249        O  0.15662252  0.89699317  0.29977310    -0.81500
O250        O  0.21991305  0.84924869  0.30876444    -0.75000
Al251      Al  0.19083107  0.93007936  0.32072559     1.90100
O252        O  0.18542573  0.88347338  0.25610098    -0.74100
O253        O  0.28498304  0.87181436  0.28641286    -0.73900
O254        O  0.25020701  0.90549284  0.23512427    -0.79600
O255        O  0.30610905  0.92881295  0.28248160    -0.77800
O256        O  0.22945500  0.92349114  0.29503480    -1.13900
O257        O  0.27417492  0.96066429  0.33485706    -0.73100
C258        C  0.24926626  0.97047293  0.35445866     0.97600
C259        C  0.15641399  0.88278391  0.27252420     0.94000
Al260      Al  0.23470623  0.88092166  0.27335162     1.55600
O261        O  0.17104243  0.97001464  0.29599732    -0.77800
C262        C  0.31164955  0.89349287  0.28153285     0.98200
C263        C  0.21366888  0.85717163  0.33769638     0.93000
O264        O  0.20808276  0.89084677  0.34665068    -0.83100
O265        O  0.92416576  0.77934770  0.16992789    -0.82500
C266        C  0.96391571  0.73369305  0.29285572     0.96800
O267        O  0.93043982  0.73586826  0.28226670    -0.71600
O268        O  0.91057073  0.80124337  0.25957297    -0.75200
Al269      Al  0.91012300  0.75243147  0.24191468     1.49000
C270        C  0.91402260  0.83105503  0.24442053     0.92100
O271        O  0.00111546  0.81330690  0.22385547    -0.81500
O272        O  0.99720788  0.70957804  0.18803519    -0.75000
Al273      Al  0.96250613  0.79451610  0.19812960     1.90100
O274        O  0.03188680  0.75938697  0.22992063    -0.74100
O275        O  0.95984137  0.68017501  0.23819596    -0.73900
O276        O  0.99153324  0.73325087  0.27470447    -0.79600
O277        O  0.90372206  0.70280473  0.22677534    -0.77800
O278        O  0.95469251  0.75655654  0.22395912    -1.13900
O279        O  0.88110212  0.76945958  0.20533838    -0.73100
C280        C  0.88999956  0.77722964  0.17731297     0.97600
C281        C  0.03042058  0.79507324  0.23170777     0.94000
Al282      Al  0.99189924  0.72313558  0.23168825     1.55600
O283        O  0.92974742  0.83053234  0.21805147    -0.77800
C284        C  0.92471625  0.67582567  0.23537583     0.98200
C285        C  0.00614452  0.73388578  0.16806942     0.93000
O286        O  0.99747076  0.76815162  0.17210689    -0.83100
O287        O  0.81194855  0.89291774  0.09309701    -0.82500
C288        C  0.76120351  0.93664645  0.47251260     0.96800
O289        O  0.76523995  0.90277623  0.48122597    -0.71600
O290        O  0.83143758  0.88581993  0.00218162    -0.75200
Al291      Al  0.78342629  0.88306043  0.02042337     1.49000
C292        C  0.86164025  0.88686966  0.01768096     0.92100
O293        O  0.84443061  0.97238000  0.04309754    -0.81500
O294        O  0.74226924  0.96674031  0.07908438    -0.75000
Al295      Al  0.82656106  0.93265596  0.06696091     1.90100
O296        O  0.79066046  0.00388623  0.03968224    -0.74100
O297        O  0.71117557  0.93203287  0.02809728    -0.73900
O298        O  0.76090839  0.96324059  0.49220528    -0.79600
O299        O  0.73476325  0.87524425  0.03567139    -0.77800
O300        O  0.78781826  0.92641496  0.04098315    -1.13900
O301        O  0.80241548  0.85194859  0.05484795    -0.73100
C302        C  0.81026393  0.85923743  0.08347859     0.97600
C303        C  0.82626804  0.00242658  0.03744706     0.94000
Al304      Al  0.75426711  0.96396236  0.03548799     1.55600
O305        O  0.86171833  0.90057923  0.04517375    -0.77800
C306        C  0.70704257  0.89683487  0.03004720     0.98200
C307        C  0.76721831  0.97491379  0.09926083     0.93000
O308        O  0.80135312  0.96652993  0.09477000    -0.83100
O309        O  0.99005668  0.19003618  0.42818708    -0.82500
C310        C  0.95880822  0.23688259  0.04883207     0.96800
O311        O  0.98584614  0.23189690  0.03037306    -0.71600
O312        O  0.02453975  0.20060215  0.98525272    -0.75200
Al313      Al  0.98407211  0.23834392  0.48638847     1.49000
C314        C  0.02302415  0.16497869  0.48743781     0.92100
O315        O  0.92129792  0.13326917  0.47455300    -0.81500
O316        O  0.87364053  0.19566479  0.46255184    -0.75000
Al317      Al  0.95482911  0.16681454  0.45489850     1.90100
O318        O  0.90391608  0.16710501  0.01908010    -0.74100
O319        O  0.89694453  0.26381822  0.98306946    -0.73900
O320        O  0.92499442  0.23428439  0.03915152    -0.79600
O321        O  0.95222135  0.28277389  0.49297121    -0.77800
O322        O  0.94709031  0.20608955  0.48028007    -1.13900
O323        O  0.98720362  0.24950820  0.44239621    -0.73100
C324        C  0.99695352  0.22399352  0.42290820     0.97600
C325        C  0.90497488  0.13658517  0.00379258     0.94000
Al326      Al  0.90340073  0.21503384  0.99980240     1.55600
O327        O  0.99334213  0.14755564  0.48119412    -0.77800
C328        C  0.91704374  0.28847854  0.49133912     0.98200
C329        C  0.88300641  0.18799357  0.43430035     0.93000
O330        O  0.91705036  0.18329718  0.42704067    -0.83100
O331        O  0.81179199  0.00217324  0.34289239    -0.82500
C332        C  0.76885202  0.03370776  0.22330399     0.96800
O333        O  0.77071632  0.00637393  0.24186376    -0.71600
O334        O  0.79987598  0.96744633  0.28751055    -0.75200
Al335      Al  0.76272976  0.00723569  0.28500977     1.49000
C336        C  0.83502607  0.96715347  0.28362956     0.92100
O337        O  0.86853972  0.06911306  0.29449507    -0.81500
O338        O  0.80184615  0.11788873  0.30988117    -0.75000
Al339      Al  0.83520447  0.03642618  0.31539013     1.90100
O340        O  0.83522205  0.09160013  0.25534630    -0.74100
O341        O  0.73720879  0.09446151  0.28770023    -0.73900
O342        O  0.77119366  0.06741646  0.23325356    -0.79600
O343        O  0.71766023  0.03770580  0.27854584    -0.77800
O344        O  0.79489671  0.04460527  0.29107346    -1.13900
O345        O  0.75213016  0.00396660  0.32904423    -0.73100
C346        C  0.77797940  0.99483737  0.34848248     0.97600
C347        C  0.86612861  0.08777671  0.26957617     0.94000
Al348      Al  0.78691820  0.08903824  0.27309349     1.55600
O349        O  0.85320366  0.99677081  0.28877448    -0.77800
C350        C  0.71105100  0.07254180  0.28110603     0.98200
C351        C  0.81191461  0.10850693  0.33751448     0.93000
O352        O  0.82084567  0.07486938  0.34390516    -0.83100
C353        C  0.82786338  0.15186945  0.41767939    -0.21000
C354        C  0.85465521  0.17852888  0.41001079    -0.07600
C355        C  0.85963348  0.18790944  0.37803979     0.13300
C356        C  0.84046520  0.16772592  0.35452096    -0.21100
C357        C  0.81790835  0.13740958  0.36215936    -0.07600
C358        C  0.80969569  0.13083850  0.39412155     0.13300
C359        C  0.78329884  0.10073622  0.40413215    -0.24400
H360        H  0.82379382  0.14470861  0.44214463     0.14500
H361        H  0.84650592  0.17291169  0.33000173     0.14600
C362        C  0.88660453  0.21775208  0.36844149    -0.24400
H363        H  0.79909196  0.07894603  0.41776770     0.04800
H364        H  0.76899680  0.08693115  0.38391253     0.08000
H365        H  0.76107679  0.11351331  0.41927577     0.08000
H366        H  0.87978451  0.24453699  0.38103577     0.08000
H367        H  0.91604831  0.20892001  0.37386384     0.08000
H368        H  0.88487753  0.22312641  0.34275480     0.04800
C369        C  0.83495632  0.07136315  0.04146555    -0.21000
C370        C  0.84715080  0.03638035  0.02930250    -0.07600
C371        C  0.87929233  0.03439068  0.00997445     0.13300
C372        C  0.89823681  0.06743549  0.00333646    -0.21100
C373        C  0.88605659  0.10262241  0.01528484    -0.07600
C374        C  0.85395893  0.10452614  0.03483144     0.13300
C375        C  0.83859019  0.14127812  0.04795825    -0.24400
H376        H  0.81040743  0.07271184  0.05638307     0.14500
H377        H  0.92258523  0.06578936  0.98820978     0.14600
C378        C  0.89294888  0.99787162  0.99506164    -0.24400
H379        H  0.81280079  0.13733610  0.06193029     0.04800
H380        H  0.83117064  0.16066147  0.02842817     0.08000
H381        H  0.92003458  0.12131294  0.56914903     0.08000
H382        H  0.86971946  0.98490290  0.98138317     0.08000
H383        H  0.90331476  0.97813940  0.01342381     0.08000
H384        H  0.91655807  0.00221550  0.97870948     0.04800
C385        C  0.78817050  0.93144692  0.41963422    -0.21000
C386        C  0.75959973  0.94608601  0.43881127    -0.07600
C387        C  0.73404614  0.97356861  0.42666999     0.13300
C388        C  0.73906143  0.98718600  0.39609794    -0.21100
C389        C  0.76984202  0.97505520  0.37801595    -0.07600
C390        C  0.79421460  0.94605305  0.38967615     0.13300
C391        C  0.82724823  0.93066964  0.37117074    -0.24400
H392        H  0.80764201  0.91047862  0.42908643     0.14500
H393        H  0.72026230  0.00903278  0.38707172     0.14600
C394        C  0.70166794  0.98882331  0.44592645    -0.24400
H395        H  0.84103709  0.90612718  0.38289068     0.04800
H396        H  0.84885517  0.95241567  0.36885025     0.08000
H397        H  0.81774304  0.92131658  0.34753458     0.08000
H398        H  0.71223510  0.00476611  0.46665864     0.08000
H399        H  0.68435550  0.96524913  0.45393654     0.08000
H400        H  0.68323156  0.00827972  0.43208729     0.04800
C401        C  0.77857245  0.02823769  0.13481307    -0.21000
C402        C  0.75830718  0.99553034  0.12830824    -0.07600
C403        C  0.73715784  0.97918909  0.15201852     0.13300
C404        C  0.73910294  0.99430889  0.18251193    -0.21100
C405        C  0.76215672  0.02496028  0.18977039    -0.07600
C406        C  0.78079585  0.04328621  0.16538595     0.13300
C407        C  0.80516840  0.07671096  0.17172304    -0.24400
H408        H  0.79482777  0.04049631  0.11623149     0.14500
H409        H  0.72409662  0.98081891  0.20120976     0.14600
C410        C  0.71502641  0.94422399  0.14571841    -0.24400
H411        H  0.82782955  0.06906836  0.18883197     0.04800
H412        H  0.78783535  0.10042886  0.18136202     0.08000
H413        H  0.81861423  0.08655734  0.14992968     0.08000
H414        H  0.73411155  0.92103226  0.13753091     0.08000
H415        H  0.69331245  0.94996124  0.12731632     0.08000
H416        H  0.70062567  0.93470512  0.16717022     0.04800
C417        C  0.86962094  0.78227410  0.12139799    -0.21000
C418        C  0.86105304  0.78831185  0.15328773    -0.07600
C419        C  0.82953240  0.81170956  0.16092368     0.13300
C420        C  0.81067258  0.83186752  0.13694942    -0.21100
C421        C  0.82207620  0.82894680  0.10550230    -0.07600
C422        C  0.85057511  0.80218369  0.09742283     0.13300
C423        C  0.86358031  0.79694013  0.06400189    -0.24400
H424        H  0.89335033  0.76398112  0.11536669     0.14500
H425        H  0.78856886  0.85209440  0.14307114     0.14600
C426        C  0.81759511  0.81833367  0.19442619    -0.24400
H427        H  0.88628146  0.77507515  0.06202620     0.04800
H428        H  0.87485211  0.82363878  0.05539055     0.08000
H429        H  0.83977008  0.78811646  0.04874021     0.08000
H430        H  0.84082174  0.83141404  0.20782199     0.08000
H431        H  0.81030744  0.79123143  0.20526640     0.08000
H432        H  0.79259127  0.83754856  0.19603870     0.04800
C433        C  0.89310376  0.93338541  0.26544734    -0.21000
C434        C  0.85499558  0.93172497  0.27394280    -0.07600
C435        C  0.83718715  0.89627544  0.27301279     0.13300
C436        C  0.85845171  0.86392413  0.26546233    -0.21100
C437        C  0.89586312  0.86595301  0.25609401    -0.07600
C438        C  0.91348280  0.90105050  0.25579866     0.13300
C439        C  0.95385250  0.90439389  0.24598919    -0.24400
H440        H  0.90691876  0.96023885  0.26568443     0.14500
H441        H  0.84511505  0.83678968  0.26519666     0.14600
C442        C  0.79568846  0.89161800  0.27863939    -0.24400
H443        H  0.96368833  0.93369599  0.24866184     0.04800
H444        H  0.95692396  0.89608728  0.22088402     0.08000
H445        H  0.97222447  0.88589798  0.26075759     0.08000
H446        H  0.77904352  0.90784629  0.26094064     0.08000
H447        H  0.78810007  0.90114198  0.30268470     0.08000
H448        H  0.78730356  0.86180217  0.27627968     0.04800
C449        C  0.07856151  0.84213617  0.22136936    -0.21000
C450        C  0.06340548  0.81625029  0.24212680    -0.07600
C451        C  0.07802532  0.81329684  0.27299989     0.13300
C452        C  0.10763090  0.83639599  0.28238957    -0.21100
C453        C  0.12349880  0.86168548  0.26141750    -0.07600
C454        C  0.10904126  0.86435552  0.23039508     0.13300
C455        C  0.12488697  0.89115020  0.20703949    -0.24400
H456        H  0.06658530  0.84479650  0.19791570     0.14500
H457        H  0.11903175  0.83412367  0.30608194     0.14600
C458        C  0.06182016  0.78663232  0.29629991    -0.24400
H459        H  0.10907901  0.89064395  0.18435206     0.04800
H460        H  0.15461393  0.88334941  0.20199359     0.08000
H461        H  0.12322548  0.92023474  0.21668113     0.08000
H462        H  0.06514338  0.75724131  0.28749710     0.08000
H463        H  0.03151243  0.79349649  0.29969467     0.08000
H464        H  0.07615217  0.78849385  0.31960803     0.04800
C465        C  0.93084412  0.82181744  0.97471626    -0.21000
C466        C  0.96598875  0.83029260  0.48768280    -0.07600
C467        C  0.96505005  0.86159493  0.01151004     0.13300
C468        C  0.93112180  0.88025738  0.01900407    -0.21100
C469        C  0.89685080  0.86984149  0.00497698    -0.07600
C470        C  0.89693045  0.84065849  0.98189377     0.13300
C471        C  0.86156243  0.82797161  0.96541962    -0.24400
H472        H  0.93382199  0.80415950  0.45080645     0.14500
H473        H  0.93129076  0.90266394  0.03653973     0.14600
C474        C  0.00057194  0.86348868  0.53240058    -0.24400
H475        H  0.86727278  0.80454806  0.94848533     0.04800
H476        H  0.85380107  0.86095820  0.44694546     0.08000
H477        H  0.84135118  0.81776003  0.98292439     0.08000
H478        H  0.02279136  0.87550094  0.51767931     0.08000
H479        H  0.01354877  0.84847480  0.04059879     0.08000
H480        H  0.99531211  0.89564252  0.04599620     0.04800
C481        C  0.19730290  0.81364753  0.41664456    -0.21000
C482        C  0.17004253  0.78742126  0.40817218    -0.07600
C483        C  0.16567408  0.77730384  0.37598917     0.13300
C484        C  0.18500225  0.79718970  0.35294431    -0.21100
C485        C  0.20795975  0.82737316  0.36133623    -0.07600
C486        C  0.21640296  0.83366536  0.39366356     0.13300
C487        C  0.24399588  0.86270088  0.40471480    -0.24400
H488        H  0.20129116  0.82114111  0.44125819     0.14500
H489        H  0.17898284  0.79172239  0.32826808     0.14600
C490        C  0.13950941  0.74658195  0.36577203    -0.24400
H491        H  0.25961862  0.87507267  0.38506223     0.04800
H492        H  0.26517157  0.84931735  0.42067391     0.08000
H493        H  0.22892987  0.88562048  0.41775414     0.08000
H494        H  0.10991927  0.75456341  0.37106356     0.08000
H495        H  0.14729525  0.72015702  0.37818067     0.08000
H496        H  0.14114674  0.74093854  0.34005173     0.04800
C497        C  0.00838670  0.70459977  0.11531361    -0.21000
C498        C  0.02699027  0.72407911  0.13930506    -0.07600
C499        C  0.06110868  0.74200933  0.13274105     0.13300
C500        C  0.07359316  0.74362233  0.10157171    -0.21100
C501        C  0.05228948  0.72831235  0.07689923    -0.07600
C502        C  0.02058639  0.70641801  0.08407788     0.13300
C503        C  0.99903148  0.68526542  0.05902792    -0.24400
H504        H  0.98248021  0.69058543  0.12057667     0.14500
H505        H  0.09854171  0.75919515  0.09625708     0.14600
C506        C  0.08359837  0.76070933  0.15852092    -0.24400
H507        H  0.97771738  0.66689052  0.06941939     0.04800
H508        H  0.01868888  0.66707564  0.04516438     0.08000
H509        H  0.98374391  0.70512505  0.04324073     0.08000
H510        H  0.09080677  0.73995878  0.17709358     0.08000
H511        H  0.06712819  0.78443881  0.16897023     0.08000
H512        H  0.11019652  0.77209509  0.14955942     0.04800
C513        C  0.99783487  0.70438713  0.33759274    -0.21000
C514        C  0.97215960  0.73217552  0.32683075    -0.07600
C515        C  0.96104547  0.76183936  0.34718224     0.13300
C516        C  0.97744563  0.76413338  0.37725369    -0.21100
C517        C  0.00496320  0.73773621  0.38734767    -0.07600
C518        C  0.01433401  0.70670773  0.36773259     0.13300
C519        C  0.04335786  0.67749215  0.37758019    -0.24400
H520        H  0.00645547  0.68181931  0.32166974     0.14500
H521        H  0.96999811  0.78774306  0.39252136     0.14600
C522        C  0.93424699  0.79267388  0.33644430    -0.24400
H523        H  0.04817066  0.65592549  0.35884382     0.04800
H524        H  0.03375854  0.66286670  0.39887535     0.08000
H525        H  0.07054356  0.69110442  0.38279162     0.08000
H526        H  0.90682025  0.78055433  0.32962480     0.08000
H527        H  0.94619040  0.80721256  0.31598337     0.08000
H528        H  0.92907057  0.81403793  0.35527686     0.04800
C529        C  0.12112232  0.90355721  0.50574170    -0.21000
C530        C  0.13737705  0.86912845  0.01343051    -0.07600
C531        C  0.17260792  0.86660045  0.02925487     0.13300
C532        C  0.19100589  0.89972134  0.03808503    -0.21100
C533        C  0.17500628  0.93552140  0.03228873    -0.07600
C534        C  0.13972072  0.93800082  0.01637823     0.13300
C535        C  0.11948225  0.97394064  0.50721626    -0.24400
H536        H  0.09415326  0.90517740  0.49359196     0.14500
H537        H  0.21827695  0.89752080  0.04957649     0.14600
C538        C  0.19187661  0.82922484  0.03581823    -0.24400
H539        H  0.09322565  0.96997494  0.49329700     0.04800
H540        H  0.13839894  0.99131529  0.49305711     0.08000
H541        H  0.11156856  0.98926147  0.52914818     0.08000
H542        H  0.19596214  0.81325713  0.01345330     0.08000
H543        H  0.17469942  0.81274687  0.05210942     0.08000
H544        H  0.21994373  0.83269075  0.04706322     0.04800
C545        C  0.09285060  0.15971317  0.99226448    -0.21000
C546        C  0.05738952  0.14377417  0.49726807    -0.07600
C547        C  0.05632974  0.10949525  0.51392380     0.13300
C548        C  0.09024370  0.09087377  0.52200379    -0.21100
C549        C  0.12629017  0.10640354  0.01570324    -0.07600
C550        C  0.12688092  0.14133701  0.00010014     0.13300
C551        C  0.16313898  0.16035997  0.99263408    -0.24400
H552        H  0.09359741  0.18678454  0.98093613     0.14500
H553        H  0.08960282  0.06491184  0.53507444     0.14600
C554        C  0.01990453  0.09307758  0.52454018    -0.24400
H555        H  0.15807065  0.18832552  0.98178226     0.04800
H556        H  0.17962500  0.14291813  0.97564544     0.08000
H557        H  0.17983080  0.16467923  0.01456288     0.08000
H558        H  0.00281554  0.08424442  0.50386067     0.08000
H559        H  0.00384552  0.11424504  0.53875252     0.08000
H560        H  0.02481264  0.06783684  0.53932805     0.04800
C561        C  0.24356092  0.03876702  0.42266634    -0.21000
C562        C  0.26283404  0.01814012  0.44580059    -0.07600
C563        C  0.28377345  0.98504897  0.43700701     0.13300
C564        C  0.28153360  0.97167304  0.40592388    -0.21100
C565        C  0.25884986  0.99022993  0.38381218    -0.07600
C566        C  0.24115409  0.02504256  0.39173823     0.13300
C567        C  0.21991461  0.04788169  0.36752899    -0.24400
H568        H  0.22854952  0.06453849  0.42914809     0.14500
H569        H  0.29544268  0.94530501  0.39939769     0.14600
C570        C  0.30806749  0.96304355  0.46002956    -0.24400
H571        H  0.20913361  0.07505953  0.37741149     0.04800
H572        H  0.19547937  0.03225749  0.35825121     0.08000
H573        H  0.23928728  0.05413045  0.34811066     0.08000
H574        H  0.29042165  0.94902049  0.47752632     0.08000
H575        H  0.32805431  0.98193530  0.47219193     0.08000
H576        H  0.32491086  0.94053732  0.44802521     0.04800
C577        C  0.25117551  0.92867004  0.17056815    -0.21000
C578        C  0.26293597  0.95136370  0.19573116    -0.07600
C579        C  0.28199090  0.98532566  0.18942515     0.13300
C580        C  0.28437577  0.99757887  0.15836497    -0.21100
C581        C  0.26833760  0.97697990  0.13384599    -0.07600
C582        C  0.25340818  0.94129547  0.13962638     0.13300
C583        C  0.23834962  0.91726112  0.11321313    -0.24400
H584        H  0.23806267  0.90209678  0.17518459     0.14500
H585        H  0.29596301  0.02483911  0.15349178     0.14600
C586        C  0.29941869  0.00946115  0.21492150    -0.24400
H587        H  0.22923122  0.88949647  0.12164540     0.04800
H588        H  0.26061664  0.91229006  0.09543932     0.08000
H589        H  0.21365721  0.93155045  0.10209183     0.08000
H590        H  0.31875285  0.99204862  0.22975878     0.08000
H591        H  0.27724590  0.02305767  0.22959889     0.08000
H592        H  0.31606039  0.03245996  0.20496359     0.04800
C593        C  0.89634929  0.14785818  0.25924151    -0.21000
C594        C  0.89887039  0.10850007  0.25867740    -0.07600
C595        C  0.93275648  0.09038818  0.24977817     0.13300
C596        C  0.96321042  0.11222434  0.24077010    -0.21100
C597        C  0.96116747  0.15198057  0.24150880    -0.07600
C598        C  0.92713486  0.16991855  0.25160332     0.13300
C599        C  0.92295865  0.21199131  0.25593858    -0.24400
H600        H  0.87035443  0.16142752  0.26691310     0.14500
H601        H  0.98895043  0.09793238  0.23348699     0.14600
C602        C  0.93659948  0.04808127  0.24945468    -0.24400
H603        H  0.89496437  0.22039579  0.26537527     0.04800
H604        H  0.92593061  0.22639383  0.23316608     0.08000
H605        H  0.94445943  0.22198646  0.27300141     0.08000
H606        H  0.91499760  0.03598326  0.23348290     0.08000
H607        H  0.93272277  0.03719511  0.27355386     0.08000
H608        H  0.96474028  0.03833411  0.24121263     0.04800
C609        C  0.06282562  0.21475011  0.35372629    -0.21000
C610        C  0.04413969  0.23763440  0.33173303    -0.07600
C611        C  0.01321874  0.26081878  0.34163454     0.13300
C612        C  0.00009406  0.25804410  0.37255715    -0.21100
C613        C  0.01668298  0.23247962  0.39354862    -0.07600
C614        C  0.04933179  0.21165841  0.38444174     0.13300
C615        C  0.07039253  0.18647239  0.40716905    -0.24400
H616        H  0.08693786  0.19772697  0.34640728     0.14500
H617        H  0.97537332  0.27421166  0.37977710     0.14600
C618        C  0.99362655  0.28846024  0.31989920    -0.24400
H619        H  0.09626052  0.17387262  0.39660780     0.04800
H620        H  0.05266167  0.16301065  0.41462157     0.08000
H621        H  0.07889722  0.20346181  0.42794537     0.08000
H622        H  0.97838615  0.27340533  0.30087797     0.08000
H623        H  0.01441993  0.30737379  0.30952961     0.08000
H624        H  0.97253187  0.30631980  0.33254958     0.04800
C625        C  0.01238312  0.26855187  0.12142181    -0.21000
C626        C  0.99872430  0.24342428  0.14334316    -0.07600
C627        C  0.96621277  0.22259446  0.13582316     0.13300
C628        C  0.95101086  0.22394283  0.10527886    -0.21100
C629        C  0.96795776  0.24506480  0.08211153    -0.07600
C630        C  0.99739357  0.26960777  0.09070962     0.13300
C631        C  0.01359476  0.29645803  0.06750824    -0.24400
H632        H  0.03663480  0.28515280  0.12752940     0.14500
H633        H  0.92776402  0.20610748  0.09885456     0.14600
C634        C  0.94784931  0.19821916  0.15972413    -0.24400
H635        H  0.03395951  0.31557300  0.07902925     0.04800
H636        H  0.99067234  0.31408448  0.05696189     0.08000
H637        H  0.02882172  0.28084964  0.04866195     0.08000
H638        H  0.94036200  0.21557116  0.18063442     0.08000
H639        H  0.96697903  0.17467129  0.16677005     0.08000
H640        H  0.92163178  0.18573462  0.15031061     0.04800
C641        C  0.19655142  0.15778844  0.17244636    -0.21000
C642        C  0.16868669  0.18429719  0.16345458    -0.07600
C643        C  0.16496344  0.19320835  0.13110368     0.13300
C644        C  0.18497721  0.17172752  0.10848405    -0.21100
C645        C  0.20866693  0.14137694  0.11728242    -0.07600
C646        C  0.21639400  0.13603335  0.14984034     0.13300
C647        C  0.24456286  0.10658507  0.16105367    -0.24400
H648        H  0.20011497  0.15127316  0.19718122     0.14500
H649        H  0.17949197  0.17679563  0.08371935     0.14600
C650        C  0.13901483  0.22435246  0.11962575    -0.24400
H651        H  0.24929299  0.10852745  0.18690333     0.04800
H652        H  0.27196106  0.11058831  0.14943936     0.08000
H653        H  0.23452692  0.07788049  0.15581200     0.08000
H654        H  0.12611244  0.24084750  0.13919011     0.08000
H655        H  0.11630208  0.21235870  0.10474476     0.08000
H656        H  0.15517929  0.24419292  0.10534198     0.04800
C657        C  0.18230349  0.06937368  0.28930268    -0.21000
C658        C  0.16797390  0.03434879  0.28051650    -0.07600
C659        C  0.13528196  0.03331379  0.26114732     0.13300
C660        C  0.11761979  0.06724487  0.25180890    -0.21100
C661        C  0.13139363  0.10220502  0.26156191    -0.07600
C662        C  0.16437150  0.10321211  0.28056213     0.13300
C663        C  0.18191421  0.13967506  0.29083421    -0.24400
H664        H  0.20799373  0.07041244  0.30311380     0.14500
H665        H  0.09280913  0.06648161  0.23676003     0.14600
C666        C  0.11986707  0.99678476  0.24888091    -0.24400
H667        H  0.20866639  0.13485109  0.30407891     0.04800
H668        H  0.16258456  0.15569021  0.30664594     0.08000
H669        H  0.18826485  0.15673702  0.26991108     0.08000
H670        H  0.10952859  0.97982867  0.26861428     0.08000
H671        H  0.14226692  0.98080734  0.23612973     0.08000
H672        H  0.09591457  0.00145914  0.23227820     0.04800
C673        C  0.11933260  0.64277837  0.03125925    -0.21000
C674        C  0.11703320  0.64654455  0.99835449    -0.07600
C675        C  0.13915809  0.62124844  0.47914557     0.13300
C676        C  0.16456363  0.59680397  0.99317018    -0.21100
C677        C  0.17008240  0.59633699  0.02599847    -0.07600
C678        C  0.14641003  0.61866659  0.04532240     0.13300
C679        C  0.15097117  0.61827836  0.08058169    -0.24400
H680        H  0.10255102  0.66151507  0.04606253     0.14500
H681        H  0.18270125  0.57823764  0.47924526     0.14600
C682        C  0.13880328  0.62480192  0.44386126    -0.24400
H683        H  0.12997876  0.63720862  0.09227781     0.04800
H684        H  0.17947138  0.62774734  0.08740671     0.08000
H685        H  0.14719247  0.58927913  0.08925190     0.08000
H686        H  0.14803837  0.65319723  0.43715922     0.08000
H687        H  0.10988485  0.62049828  0.43461597     0.08000
H688        H  0.15792381  0.60363506  0.43256288     0.04800
C689        C  0.38499408  0.84466239  0.23021320    -0.21000
C690        C  0.40683547  0.82568178  0.25270411    -0.07600
C691        C  0.40209706  0.83556249  0.28493572     0.13300
C692        C  0.37210789  0.85974414  0.29397316    -0.21100
C693        C  0.34823615  0.87639236  0.27148708    -0.07600
C694        C  0.35631706  0.87034647  0.23912109     0.13300
C695        C  0.33305072  0.88835091  0.21355811    -0.24400
H696        H  0.38843453  0.83713602  0.20558927     0.14500
H697        H  0.36657186  0.86455421  0.31875551     0.14600
C698        C  0.42698522  0.81971816  0.31053056    -0.24400
H699        H  0.34550158  0.88344959  0.18996325     0.04800
H700        H  0.33122263  0.91918391  0.21769085     0.08000
H701        H  0.30494919  0.87576668  0.21303159     0.08000
H702        H  0.45223339  0.80545747  0.30085024     0.08000
H703        H  0.41107091  0.79983670  0.32496324     0.08000
H704        H  0.43710234  0.84293475  0.32589221     0.04800
C705        C  0.32880039  0.66042970  0.17027072    -0.21000
C706        C  0.36033556  0.68142876  0.16282167    -0.07600
C707        C  0.36811425  0.68821353  0.13073671     0.13300
C708        C  0.34708288  0.67008783  0.10714606    -0.21100
C709        C  0.31889405  0.64498139  0.11479317    -0.07600
C710        C  0.30836705  0.64153448  0.14664438     0.13300
C711        C  0.27681812  0.61646128  0.15591548    -0.24400
H712        H  0.32259030  0.65542578  0.19477111     0.14500
H713        H  0.35520726  0.67286547  0.08276538     0.14600
C714        C  0.39962760  0.71286091  0.12057792    -0.24400
H715        H  0.27122233  0.61844007  0.18155625     0.04800
H716        H  0.28394636  0.58661204  0.15031301     0.08000
H717        H  0.25066327  0.62494490  0.14309263     0.08000
H718        H  0.41291730  0.72812264  0.14053714     0.08000
H719        H  0.38840414  0.73443354  0.10404639     0.08000
H720        H  0.42147939  0.69545114  0.10839924     0.04800
C721        C  0.13047921  0.35490743  0.23548253    -0.21000
C722        C  0.11700700  0.32923501  0.25720613    -0.07600
C723        C  0.12706902  0.33404131  0.28944580     0.13300
C724        C  0.15281828  0.36162485  0.29856392    -0.21100
C725        C  0.16917023  0.38474816  0.27645854    -0.07600
C726        C  0.15634039  0.38266914  0.24473281     0.13300
C727        C  0.17229710  0.40739371  0.21998750    -0.24400
H728        H  0.12305910  0.35139538  0.21082648     0.14500
H729        H  0.16278407  0.36293674  0.32276437     0.14600
C730        C  0.11355101  0.30809832  0.31428958    -0.24400
H731        H  0.15802298  0.40347128  0.19684094     0.04800
H732        H  0.20242449  0.40016980  0.21687156     0.08000
H733        H  0.16885234  0.43740693  0.22710818     0.08000
H734        H  0.12706067  0.28003373  0.31090142     0.08000
H735        H  0.08251700  0.30657262  0.31300244     0.08000
H736        H  0.12123193  0.31797123  0.33836121     0.04800
C737        C  0.35264157  0.60251640  0.26312452    -0.21000
C738        C  0.39173568  0.60144374  0.26701516    -0.07600
C739        C  0.40976093  0.56923794  0.27951093     0.13300
C740        C  0.38794847  0.53867439  0.28823766    -0.21100
C741        C  0.34845290  0.53931593  0.28426193    -0.07600
C742        C  0.33068778  0.57189486  0.27119522     0.13300
C743        C  0.28894314  0.57473457  0.26467904    -0.24400
H744        H  0.33928144  0.62736914  0.25295726     0.14500
H745        H  0.40201707  0.51408596  0.29814289     0.14600
C746        C  0.45184287  0.56737813  0.28386845    -0.24400
H747        H  0.28072322  0.60161590  0.25312097     0.04800
H748        H  0.27325179  0.57361014  0.28705983     0.08000
H749        H  0.28040845  0.55149084  0.24864364     0.08000
H750        H  0.46083922  0.59063179  0.29970469     0.08000
H751        H  0.46569038  0.57013556  0.26075354     0.08000
H752        H  0.46149920  0.54031161  0.29437412     0.04800
C753        C  0.29358086  0.45674079  0.14516135    -0.21000
C754        C  0.26661847  0.48386152  0.13526591    -0.07600
C755        C  0.23678093  0.49406210  0.15548944     0.13300
C756        C  0.23576676  0.47814339  0.18560723    -0.21100
C757        C  0.26361661  0.45212575  0.19580310    -0.07600
C758        C  0.29250629  0.44081043  0.17513266     0.13300
C759        C  0.32373331  0.41410077  0.18535269    -0.24400
H760        H  0.31663840  0.44902449  0.12973530     0.14500
H761        H  0.21389818  0.48711250  0.20180383     0.14600
C762        C  0.20740713  0.52322533  0.14626164    -0.24400
H763        H  0.34469065  0.40918066  0.16647832    -0.09600
H764        H  0.31196407  0.38651751  0.19145066     0.08000
H765        H  0.33865183  0.42594918  0.20617861     0.08000
H766        H  0.19145451  0.51328254  0.12529276     0.08000
H767        H  0.22104498  0.55010761  0.14076591     0.08000
H768        H  0.18700012  0.52881190  0.16544647     0.04800
C769        C  0.27777867  0.54755539  0.42533898    -0.21000
C770        C  0.25407505  0.53096802  0.44693792    -0.07600
C771        C  0.22941937  0.50247869  0.43648181     0.13300
C772        C  0.23165978  0.48890549  0.40536313    -0.21100
C773        C  0.25848198  0.50252036  0.38486605    -0.07600
C774        C  0.28068362  0.53338307  0.39447185     0.13300
C775        C  0.30810671  0.55104224  0.37250047    -0.24400
H776        H  0.29616421  0.56972404  0.43329577     0.14500
H777        H  0.21442212  0.46566449  0.39778259     0.14600
C778        C  0.20116121  0.48572860  0.45815833    -0.24400
H779        H  0.32095696  0.57638954  0.38323049     0.04800
H780        H  0.29331214  0.55975735  0.35053041     0.08000
H781        H  0.33139367  0.53095840  0.36670136     0.08000
H782        H  0.18319849  0.50843571  0.46863097     0.08000
H783        H  0.21563518  0.46970302  0.47715390     0.08000
H784        H  0.18251072  0.46593368  0.44541420     0.04800
C785        C  0.37244688  0.11141308  0.04768370    -0.21000
C786        C  0.35283559  0.09027971  0.02522040    -0.07600
C787        C  0.36128627  0.09516608  0.99292813     0.13300
C788        C  0.38503695  0.12421141  0.98390307    -0.21100
C789        C  0.40251239  0.14716380  0.00636442    -0.07600
C790        C  0.39757571  0.13926532  0.03872605     0.13300
C791        C  0.41615995  0.16208776  0.06417616    -0.24400
H792        H  0.36593677  0.10806111  0.07234256     0.14500
H793        H  0.38717275  0.13100399  0.45901978     0.14600
C794        C  0.34432014  0.07151434  0.96720548    -0.24400
H795        H  0.41185524  0.15008909  0.08784915     0.04800
H796        H  0.40358561  0.19081994  0.06442046     0.08000
H797        H  0.44520594  0.16234647  0.55998791     0.08000
H798        H  0.32412704  0.08877099  0.95303822     0.08000
H799        H  0.32824086  0.04833610  0.47616605     0.08000
H800        H  0.36688377  0.06024917  0.95163420     0.04800
C801        C  0.32685096  0.31994243  0.42195144    -0.21000
C802        C  0.35576006  0.29441977  0.41330686    -0.07600
C803        C  0.36065047  0.28564844  0.38094472     0.13300
C804        C  0.33956582  0.30570132  0.35815734    -0.21100
C805        C  0.31442624  0.33493734  0.36685245    -0.07600
C806        C  0.30617553  0.34032947  0.39915956     0.13300
C807        C  0.27669985  0.36838472  0.41037713    -0.24400
H808        H  0.32240560  0.32641356  0.44665040     0.14500
H809        H  0.34562963  0.30109856  0.33344538     0.14600
C810        C  0.38895529  0.25611186  0.37017623    -0.24400
H811        H  0.25631215  0.35393867  0.42540602     0.04800
H812        H  0.26047304  0.38140070  0.39072549     0.08000
H813        H  0.29022278  0.39095431  0.42444638     0.08000
H814        H  0.38375132  0.22915950  0.38214526     0.08000
H815        H  0.41802111  0.26506339  0.37543741     0.08000
H816        H  0.38697178  0.25097724  0.34438164     0.04800
C817        C  0.36057326  0.37116713  0.03097256    -0.21000
C818        C  0.39312550  0.37442023  0.01291110    -0.07600
C819        C  0.40481191  0.41055447  0.00415033     0.13300
C820        C  0.38353887  0.44230049  0.01368987    -0.21100
C821        C  0.35040451  0.43895801  0.03103384    -0.07600
C822        C  0.33876682  0.40276679  0.03980849     0.13300
C823        C  0.30381685  0.39688793  0.05876547    -0.24400
H824        H  0.35136764  0.34345641  0.03741823     0.14500
H825        H  0.39251728  0.47000198  0.00699636     0.14600
C826        C  0.44305911  0.41614027  0.49292497    -0.24400
H827        H  0.30043503  0.36684449  0.06480018     0.04800
H828        H  0.27850394  0.40584098  0.04503404     0.08000
H829        H  0.30530466  0.41320794  0.08112753     0.08000
H830        H  0.44151760  0.40539487  0.46834714     0.08000
H831        H  0.46439043  0.40246437  0.99720232     0.08000
H832        H  0.45065724  0.44623038  0.49196362     0.04800
C833        C  0.90099272  0.33138663  0.03512714    -0.21000
C834        C  0.90115714  0.32576906  0.00227052    -0.07600
C835        C  0.88043323  0.34982575  0.48431218     0.13300
C836        C  0.85596745  0.37698158  0.49801346    -0.21100
C837        C  0.85010551  0.37786798  0.03045760    -0.07600
C838        C  0.87505932  0.35653497  0.04946925     0.13300
C839        C  0.87316081  0.35920696  0.08478952    -0.24400
H840        H  0.91871716  0.31347015  0.04981857     0.14500
H841        H  0.83950594  0.39557088  0.48288586     0.14600
C842        C  0.88430877  0.34762811  0.44911241    -0.24400
H843        H  0.89482994  0.34079878  0.09623805     0.04800
H844        H  0.84510986  0.35053923  0.09284052     0.08000
H845        H  0.87789473  0.38868129  0.09251419     0.08000
H846        H  0.87455096  0.31999145  0.44022117     0.08000
H847        H  0.91425167  0.35081914  0.44277368     0.08000
H848        H  0.86740910  0.37010261  0.43724269     0.04800
C849        C  0.63220049  0.32415892  0.00009510    -0.21000
C850        C  0.62807936  0.36132878  0.01125810    -0.07600
C851        C  0.58973801  0.38249976  0.51229080     0.13300
C852        C  0.55839067  0.36085448  0.50460852    -0.21100
C853        C  0.56207637  0.32250716  0.49604634    -0.07600
C854        C  0.60082883  0.30256370  0.99195063     0.13300
C855        C  0.60756592  0.26236242  0.98136760    -0.24400
H856        H  0.66012002  0.31130494  0.99926237     0.14500
H857        H  0.53066059  0.37400498  0.50592975     0.14600
C858        C  0.58409437  0.42341846  0.52121412    -0.24400
H859        H  0.63802797  0.25493160  0.98018492     0.04800
H860        H  0.59533944  0.25792973  0.95756027     0.08000
H861        H  0.59478684  0.24293158  0.99824560     0.08000
H862        H  0.60057046  0.44114708  0.50530792     0.08000
H863        H  0.59332807  0.42839049  0.54589390     0.08000
H864        H  0.55407723  0.43252621  0.51927598     0.04800
C865        C  0.63415600  0.12096740  0.23422811    -0.21000
C866        C  0.61997669  0.14563204  0.25728188    -0.07600
C867        C  0.62884984  0.13858711  0.28933409     0.13300
C868        C  0.65584804  0.11076959  0.29709380    -0.21100
C869        C  0.67358921  0.08925236  0.27370819    -0.07600
C870        C  0.66050175  0.09235073  0.24214923     0.13300
C871        C  0.67673867  0.06819098  0.21621949    -0.24400
H872        H  0.62692128  0.12594621  0.20974870     0.14500
H873        H  0.66550287  0.10802238  0.32128196     0.14600
C874        C  0.61248006  0.16224816  0.31548129    -0.24400
H875        H  0.66097423  0.07200707  0.19372455     0.04800
H876        H  0.67570077  0.03803853  0.22259687     0.08000
H877        H  0.70599283  0.07636184  0.21213997     0.08000
H878        H  0.58140686  0.16370383  0.31299438     0.08000
H879        H  0.62454819  0.19057602  0.31485969     0.08000
H880        H  0.61936753  0.15035070  0.33896498     0.04800
C881        C  0.46427950  0.36240307  0.26106893    -0.21000
C882        C  0.46123332  0.32565332  0.24874182    -0.07600
C883        C  0.42495374  0.31004381  0.24543625     0.13300
C884        C  0.39327271  0.33160844  0.25436958    -0.21100
C885        C  0.39660180  0.36781812  0.26727470    -0.07600
C886        C  0.43250483  0.38350815  0.27067926     0.13300
C887        C  0.43742362  0.42274124  0.28371065    -0.24400
H888        H  0.49179152  0.37458213  0.26371390     0.14500
H889        H  0.36559519  0.31963348  0.25215761     0.14600
C890        C  0.41878977  0.27092178  0.23249173    -0.24400
H891        H  0.46722140  0.43130973  0.28297015     0.04800
H892        H  0.42850229  0.42421885  0.30863383     0.08000
H893        H  0.42033628  0.44314237  0.26965145     0.08000
H894        H  0.43190156  0.24970649  0.24841067     0.08000
H895        H  0.43090402  0.26808449  0.20861998     0.08000
H896        H  0.38844373  0.26448819  0.23048375     0.04800
C897        C  0.52013654  0.21186331  0.34282307    -0.21000
C898        C  0.55011008  0.23579571  0.33648681    -0.07600
C899        C  0.56708185  0.25563398  0.36158722     0.13300
C900        C  0.55166970  0.25332959  0.39173066    -0.21100
C901        C  0.51976436  0.23182020  0.39747590    -0.07600
C902        C  0.50456866  0.20975863  0.37291053     0.13300
C903        C  0.47055696  0.18583148  0.37680044    -0.24400
H904        H  0.50751372  0.19586777  0.32372444     0.14500
H905        H  0.56297368  0.27063243  0.41058576     0.14600
C906        C  0.59949714  0.28132176  0.35646970    -0.24400
H907        H  0.44789486  0.19551287  0.36042982     0.04800
H908        H  0.45918044  0.18676416  0.40092282     0.08000
H909        H  0.47811828  0.15609437  0.37100162     0.08000
H910        H  0.59126949  0.30324950  0.33914015     0.08000
H911        H  0.62413209  0.26478003  0.34765780     0.08000
H912        H  0.60823109  0.29575761  0.37859947     0.04800
C913        C  0.50546465  0.21305481  0.09258213    -0.21000
C914        C  0.47464816  0.23690924  0.08465853    -0.07600
C915        C  0.45675404  0.25829672  0.10861231     0.13300
C916        C  0.47211406  0.25766560  0.13915207    -0.21100
C917        C  0.50449360  0.23592469  0.14644766    -0.07600
C918        C  0.52057420  0.21227299  0.12323570     0.13300
C919        C  0.55503310  0.18824426  0.13021668    -0.24400
H920        H  0.51875512  0.19597991  0.07434503     0.14500
H921        H  0.45999461  0.27593443  0.15715962     0.14600
C922        C  0.42315214  0.28367250  0.10187535    -0.24400
H923        H  0.56443924  0.17197557  0.10914485     0.04800
H924        H  0.54874530  0.16795959  0.14900638     0.08000
H925        H  0.57846823  0.20628432  0.13814566     0.08000
H926        H  0.39929938  0.26667820  0.09322711     0.08000
H927        H  0.43037213  0.30466944  0.08390721     0.08000
H928        H  0.41368377  0.29924571  0.12328481     0.04800
C929        C  0.65837534  0.28088765  0.13483946    -0.21000
C930        C  0.66699594  0.28902627  0.16653827    -0.07600
C931        C  0.69761661  0.31265188  0.17341009     0.13300
C932        C  0.71526101  0.33122158  0.14867215    -0.21100
C933        C  0.70344178  0.32650172  0.11724275    -0.07600
C934        C  0.67606364  0.29935412  0.11014515     0.13300
C935        C  0.66247658  0.29259538  0.07691070    -0.24400
H936        H  0.63522604  0.26247510  0.12943777     0.14500
H937        H  0.73647925  0.35180159  0.15409864     0.14600
C938        C  0.70973905  0.32108222  0.20677014    -0.24400
H939        H  0.64074980  0.27067509  0.07561868     0.04800
H940        H  0.68633986  0.28313080  0.06194776     0.08000
H941        H  0.64977126  0.31894066  0.06747828     0.08000
H942        H  0.71813079  0.29453558  0.21873061     0.08000
H943        H  0.68634845  0.33514099  0.21964469     0.08000
H944        H  0.73410583  0.34004712  0.20776230     0.04800
C945        C  0.85815523  0.59503150  0.24427801    -0.21000
C946        C  0.85475653  0.59418066  0.27723805    -0.07600
C947        C  0.87881855  0.61638118  0.29591045     0.13300
C948        C  0.90505932  0.63939264  0.28122784    -0.21100
C949        C  0.90652891  0.64221019  0.24822819    -0.07600
C950        C  0.88332443  0.61911537  0.22957431     0.13300
C951        C  0.88426172  0.62084299  0.19420741    -0.24400
H952        H  0.83879078  0.57913503  0.22988277     0.14500
H953        H  0.92231424  0.65769119  0.29562264     0.14600
C954        C  0.87570497  0.61695643  0.33119386    -0.24400
H955        H  0.86471765  0.60057408  0.18308406     0.04800
H956        H  0.91314333  0.61387593  0.18598272     0.08000
H957        H  0.87598357  0.64952660  0.18626143     0.08000
H958        H  0.88047201  0.58808630  0.34033314     0.08000
H959        H  0.84726269  0.62734921  0.33808920     0.08000
H960        H  0.89672828  0.63564732  0.34236196     0.04800
C961        C  0.63421925  0.40502244  0.24770684    -0.21000
C962        C  0.63935841  0.37107677  0.26416501    -0.07600
C963        C  0.66974839  0.36803827  0.28613194     0.13300
C964        C  0.69185652  0.39944946  0.29240838    -0.21100
C965        C  0.68479331  0.43384557  0.27770463    -0.07600
C966        C  0.65710659  0.43606511  0.25369946     0.13300
C967        C  0.65376949  0.46995518  0.23274783    -0.24400
H968        H  0.61271051  0.40709035  0.22947027     0.14500
H969        H  0.71481151  0.39715902  0.30923820     0.14600
C970        C  0.68024216  0.33179340  0.30250874    -0.24400
H971        H  0.63144832  0.46667170  0.21449920     0.04800
H972        H  0.68087795  0.47387493  0.22062284     0.08000
H973        H  0.64707972  0.49563255  0.24660238     0.08000
H974        H  0.68686458  0.30947574  0.28480288     0.08000
H975        H  0.65688494  0.32311869  0.31766956     0.08000
H976        H  0.70547299  0.33473234  0.31791621     0.04800
C977        C  0.63378015  0.64161183  0.25934788    -0.21000
C978        C  0.63060716  0.60485050  0.27036574    -0.07600
C979        C  0.59461945  0.58928937  0.27301784     0.13300
C980        C  0.56309214  0.60995736  0.26232480    -0.21100
C981        C  0.56612260  0.64673041  0.25090389    -0.07600
C982        C  0.60208426  0.66331164  0.25059990     0.13300
C983        C  0.60787648  0.70384919  0.24197898    -0.24400
H984        H  0.66134404  0.65400330  0.25874074     0.14500
H985        H  0.53565634  0.59746320  0.26364412     0.14600
C986        C  0.58896332  0.55109363  0.28699606    -0.24400
H987        H  0.63795628  0.71146118  0.24349622     0.04800
H988        H  0.59230631  0.72273825  0.25853029     0.08000
H989        H  0.59824676  0.70915849  0.21752464     0.08000
H990        H  0.59788349  0.55115409  0.31209559     0.08000
H991        H  0.60543341  0.52950439  0.27389231     0.08000
H992        H  0.55899876  0.54298469  0.28601020     0.04800
C993        C  0.78763684  0.48804819  0.15501670    -0.21000
C994        C  0.75432388  0.49548927  0.13814500    -0.07600
C995        C  0.72834145  0.52304491  0.14992078     0.13300
C996        C  0.73463587  0.53942565  0.17966258    -0.21100
C997        C  0.76591610  0.52872854  0.19793343    -0.07600
C998        C  0.79365736  0.50410597  0.18492144     0.13300
C999        C  0.82944944  0.49421620  0.20261053    -0.24400
H1000       H  0.80811190  0.46802101  0.14553318     0.14500
H1001       H  0.71364164  0.55855242  0.18964811     0.14600
C1002       C  0.69395645  0.53549872  0.13140322    -0.24400
H1003       H  0.84816419  0.47519483  0.18859247     0.04800
H1004       H  0.82323033  0.47970073  0.22482798     0.08000
H1005       H  0.84512198  0.52010758  0.20794321     0.08000
H1006       H  0.67397228  0.51214480  0.12896342     0.08000
H1007       H  0.70252972  0.54502996  0.10781529     0.08000
H1008       H  0.67870613  0.55931389  0.14313707     0.04800
C1009       C  0.78872706  0.49477404  0.41073553    -0.21000
C1010       C  0.77229053  0.47369928  0.38653332    -0.07600
C1011       C  0.75715157  0.43833290  0.39354388     0.13300
C1012       C  0.75601859  0.42620848  0.42485334    -0.21100
C1013       C  0.76872416  0.44909532  0.44959491    -0.07600
C1014       C  0.78718090  0.48306463  0.44221752     0.13300
C1015       C  0.80527905  0.50747767  0.46713456    -0.24400
H1016       H  0.80029676  0.52185750  0.40529836     0.14500
H1017       H  0.74281694  0.39988859  0.43015136     0.14600
C1018       C  0.74075687  0.41392242  0.36803904    -0.24400
H1019       H  0.82135619  0.53051389  0.45660457     0.04800
H1020       H  0.82517991  0.49022612  0.48158479     0.08000
H1021       H  0.78369732  0.52098474  0.48239739     0.08000
H1022       H  0.76219021  0.40835030  0.34966201     0.08000
H1023       H  0.71570385  0.42831975  0.35757292     0.08000
H1024       H  0.73173175  0.38644810  0.37716655     0.04800
C1025       C  0.62254620  0.83489692  0.03300936    -0.21000
C1026       C  0.61896497  0.82502282  0.00100905    -0.07600
C1027       C  0.63263157  0.84854148  0.48344832     0.13300
C1028       C  0.65896229  0.87501095  0.49392991    -0.21100
C1029       C  0.67123804  0.87920949  0.02104442    -0.07600
C1030       C  0.64903819  0.86123568  0.04333382     0.13300
C1031       C  0.65487052  0.86837600  0.07801277    -0.24400
H1032       H  0.60716629  0.81930726  0.05026516     0.14500
H1033       H  0.67218280  0.89284926  0.47692547     0.14600
C1034       C  0.62261271  0.84559821  0.44902474    -0.24400
H1035       H  0.63511743  0.85216637  0.09235348     0.04800
H1036       H  0.65020521  0.89877304  0.08332301     0.08000
H1037       H  0.68400634  0.86000740  0.08505399     0.08000
H1038       H  0.59178334  0.84974635  0.44581427     0.08000
H1039       H  0.63110430  0.81736365  0.43974255     0.08000
H1040       H  0.63696901  0.86711437  0.43505624     0.04800
C1041       C  0.42579349  0.66671897  0.99251891    -0.21000
C1042       C  0.45646086  0.65257793  0.50094520    -0.07600
C1043       C  0.45846971  0.62215875  0.52207686     0.13300
C1044       C  0.42551283  0.60348587  0.52957754    -0.21100
C1045       C  0.39348933  0.61121181  0.01006844    -0.07600
C1046       C  0.39215661  0.64886190  0.99964431     0.13300
C1047       C  0.35558463  0.67101980  0.99736483    -0.24400
H1048       H  0.42453438  0.69577757  0.98511368     0.14500
H1049       H  0.42725333  0.58050252  0.54608362     0.14600
C1050       C  0.49493270  0.61024881  0.53796703    -0.24400
H1051       H  0.35992643  0.70043944  0.98993255     0.04800
H1052       H  0.34171287  0.67202939  0.02064207     0.08000
H1053       H  0.33672865  0.65771375  0.97971546     0.08000
H1054       H  0.50735103  0.63476536  0.55035554     0.08000
H1055       H  0.51505220  0.59873175  0.52036377     0.08000
H1056       H  0.49071235  0.58798094  0.55561598     0.04800
C1057       C  0.56504125  0.70760724  0.10415232    -0.21000
C1058       C  0.55265740  0.73729692  0.08533657    -0.07600
C1059       C  0.52791005  0.76527626  0.09767880     0.13300
C1060       C  0.51357252  0.76098949  0.12803872    -0.21100
C1061       C  0.52272678  0.72884736  0.14560403    -0.07600
C1062       C  0.54998896  0.70243543  0.13392949     0.13300
C1063       C  0.56291823  0.66803444  0.15198631    -0.24400
H1064       H  0.58436187  0.68666585  0.09445221     0.14500
H1065       H  0.49348503  0.78158250  0.13726152     0.14600
C1066       C  0.51652543  0.79940791  0.07881706    -0.24400
H1067       H  0.58688932  0.65309127  0.14037655     0.04800
H1068       H  0.53987889  0.64766700  0.15342364     0.08000
H1069       H  0.57230840  0.67626136  0.17595210     0.08000
H1070       H  0.50065880  0.79097011  0.05736517     0.08000
H1071       H  0.54199388  0.81460908  0.07189762     0.08000
H1072       H  0.49830040  0.81918285  0.09257277     0.04800
C1073       C  0.52154108  0.75741988  0.37486536    -0.21000
C1074       C  0.50004318  0.73945098  0.39711103    -0.07600
C1075       C  0.46538540  0.72368883  0.38815633     0.13300
C1076       C  0.45421643  0.72392009  0.35649769    -0.21100
C1077       C  0.47751646  0.73850458  0.33354461    -0.07600
C1078       C  0.51108767  0.75686501  0.34300977     0.13300
C1079       C  0.53682318  0.77521787  0.32001846    -0.24400
H1080       H  0.54817379  0.76922582  0.38208380     0.14500
H1081       H  0.42825427  0.71066324  0.34946588     0.14600
C1082       C  0.44048465  0.70598923  0.41192680    -0.24400
H1083       H  0.55958180  0.79072869  0.33224212     0.04800
H1084       H  0.52066937  0.79572244  0.30538200     0.08000
H1085       H  0.55071040  0.75358911  0.30480981     0.08000
H1086       H  0.43332302  0.72712849  0.43045900     0.08000
H1087       H  0.45506009  0.68129224  0.42265868     0.08000
H1088       H  0.41383264  0.69615173  0.40112309     0.04800
C1089       C  0.68880407  0.64733959  0.42779087    -0.21000
C1090       C  0.66143384  0.67390078  0.41793644    -0.07600
C1091       C  0.65924897  0.68345464  0.38572011     0.13300
C1092       C  0.68180332  0.66349027  0.36388424    -0.21100
C1093       C  0.70563634  0.63346004  0.37330691    -0.07600
C1094       C  0.71055320  0.62659259  0.40592984     0.13300
C1095       C  0.73789458  0.59681554  0.41792552    -0.24400
H1096       H  0.69092341  0.64039199  0.45255113     0.14500
H1097       H  0.67825380  0.66921557  0.33899581     0.14600
C1098       C  0.63269813  0.71413326  0.37416435    -0.24400
H1099       H  0.74021352  0.59751497  0.44402157     0.04800
H1100       H  0.76625842  0.60153574  0.40829385     0.08000
H1101       H  0.72856692  0.56830482  0.41108004     0.08000
H1102       H  0.63811920  0.74070447  0.38726376     0.08000
H1103       H  0.60306132  0.70618871  0.37748109     0.08000
H1104       H  0.63640419  0.71948706  0.34869503     0.04800
C1105       C  0.64976869  0.57633232  0.99357271    -0.21000
C1106       C  0.62907753  0.59769777  0.01567982    -0.07600
C1107       C  0.62623120  0.58465626  0.04682958     0.13300
C1108       C  0.64448276  0.55065776  0.05507814    -0.21100
C1109       C  0.66686564  0.53067532  0.03336561    -0.07600
C1110       C  0.66921720  0.54331692  0.00217640     0.13300
C1111       C  0.68557614  0.52189439  0.47833476    -0.24400
H1112       H  0.64360579  0.58514387  0.47054249     0.14500
H1113       H  0.64212767  0.54016253  0.07876741     0.14600
C1114       C  0.60407490  0.60624813  0.07131251    -0.24400
H1115       H  0.68025319  0.53349107  0.45448936     0.04800
H1116       H  0.68283535  0.49257248  0.97605078     0.08000
H1117       H  0.71621801  0.52253967  0.48301570     0.08000
H1118       H  0.57471393  0.61112220  0.06292294     0.08000
H1119       H  0.61752024  0.63357345  0.07603787     0.08000
H1120       H  0.60322638  0.59091555  0.09391399     0.04800
O1121       O  0.60403226  0.68519302  0.93073546    -0.82500
C1122       C  0.55673480  0.73580940  0.55293688     0.96800
O1123       O  0.59028532  0.73113922  0.54368037    -0.71600
O1124       O  0.60827982  0.66345627  0.52297064    -0.75200
Al1125     Al  0.61108702  0.71186871  0.50473893     1.49000
C1126       C  0.60637594  0.63366426  0.50687339     0.92100
O1127       O  0.52543100  0.65103467  0.98086325    -0.81500
O1128       O  0.53069471  0.75377863  0.94629299    -0.75000
Al1129     Al  0.56490301  0.66968319  0.95693168     1.90100
O1130       O  0.49445637  0.70477518  0.98630278    -0.74100
O1131       O  0.56651131  0.78445598  0.99604204    -0.73900
O1132       O  0.52945495  0.73600381  0.53393077    -0.79600
O1133       O  0.62326996  0.76071636  0.98855991    -0.77800
O1134       O  0.57167334  0.70783186  0.98351879    -1.13900
O1135       O  0.64573156  0.69322144  0.96865188    -0.73100
C1136       C  0.63782728  0.68680911  0.93990812     0.97600
C1137       C  0.49546662  0.66896596  0.98731982     0.94000
Al1138     Al  0.53441535  0.74146858  0.98965766     1.55600
O1139       O  0.59744553  0.63428095  0.97752943    -0.77800
C1140       C  0.60160091  0.78861447  0.99347045     0.98200
C1141       C  0.52233031  0.72932745  0.92586194     0.93000
O1142       O  0.53063197  0.69512456  0.92980063    -0.83100
O1143       O  0.71572227  0.56935291  0.85567758    -0.82500
C1144       C  0.76563370  0.53126092  0.73398058     0.96800
O1145       O  0.76143953  0.56484040  0.74416447    -0.71600
O1146       O  0.69533488  0.58559908  0.76631936    -0.75200
Al1147     Al  0.74455794  0.58536791  0.78433612     1.49000
C1148       C  0.66535584  0.58251586  0.78141851     0.92100
O1149       O  0.68461714  0.49390728  0.79884259    -0.81500
O1150       O  0.78642044  0.49933269  0.83985160    -0.75000
Al1151     Al  0.70169621  0.53183490  0.82654564     1.90100
O1152       O  0.73884837  0.46304938  0.79656930    -0.74100
O1153       O  0.81769890  0.53620991  0.79005796    -0.73900
O1154       O  0.76642301  0.50380845  0.75235240    -0.79600
O1155       O  0.79429136  0.59250612  0.79936000    -0.77800
O1156       O  0.74057138  0.54066015  0.80209710    -1.13900
O1157       O  0.72764249  0.61342992  0.82136688    -0.73100
C1158       C  0.71971091  0.60358124  0.84917875     0.97600
C1159       C  0.70345182  0.46451254  0.79194458     0.94000
Al1160     Al  0.77475811  0.50382627  0.79561635     1.55600
O1161       O  0.66589911  0.56537759  0.80710910    -0.77800
C1162       C  0.82181667  0.57143779  0.79220951     0.98200
C1163       C  0.76139405  0.48927053  0.85880105     0.93000
O1164       O  0.72708768  0.49609174  0.85293529    -0.83100
O1165       O  0.52981631  0.27800289  0.68174098    -0.82500
C1166       C  0.56076843  0.23776606  0.80163785     0.96800
O1167       O  0.53405699  0.23835295  0.78207467    -0.71600
O1168       O  0.49579149  0.26756877  0.73602871    -0.75200
Al1169     Al  0.53579439  0.23001525  0.73895826     1.49000
C1170       C  0.49571659  0.30309331  0.73921553     0.92100
O1171       O  0.59883090  0.33576594  0.72917951    -0.81500
O1172       O  0.64644293  0.27154599  0.71664469    -0.75000
Al1173     Al  0.56487473  0.30170764  0.70893890     1.90100
O1174       O  0.61649391  0.30550592  0.77090570    -0.74100
O1175       O  0.62424363  0.20619095  0.73959357    -0.73900
O1176       O  0.59453838  0.24147825  0.79280259    -0.79600
O1177       O  0.56744658  0.18554308  0.74575377    -0.77800
O1178       O  0.57281518  0.26243962  0.73382072    -1.13900
O1179       O  0.53257375  0.21848133  0.69486975    -0.73100
C1180       C  0.52241773  0.24409458  0.67591086     0.97600
C1181       C  0.61643381  0.33496800  0.75503203     0.94000
Al1182     Al  0.61679511  0.25649397  0.75333476     1.55600
O1183       O  0.52561315  0.32095376  0.73493100    -0.77800
C1184       C  0.60260588  0.17974039  0.74528605     0.98200
C1185       C  0.63703765  0.28016396  0.68847042     0.93000
O1186       O  0.60281635  0.28537073  0.68111490    -0.83100
O1187       O  0.71426417  0.46428606  0.60374578    -0.82500
C1188       C  0.76102972  0.43403641  0.98385357     0.96800
O1189       O  0.75536300  0.46085769  0.00275749    -0.71600
O1190       O  0.72401827  0.50170606  0.54836057    -0.75200
Al1191     Al  0.76242517  0.46206066  0.54562234     1.49000
C1192       C  0.68854835  0.50024634  0.54512238     0.92100
O1193       O  0.65814194  0.39841800  0.55128576    -0.81500
O1194       O  0.71925158  0.34956019  0.56314545    -0.75000
Al1195     Al  0.69110129  0.43049376  0.57460467     1.90100
O1196       O  0.68983014  0.38316176  0.50902381    -0.74100
O1197       O  0.78627155  0.37367845  0.54639469    -0.73900
O1198       O  0.75917061  0.40014536  0.99292179    -0.79600
O1199       O  0.80729230  0.43032962  0.53939060    -0.77800
O1200       O  0.73051539  0.42451633  0.54962185    -1.13900
O1201       O  0.77332318  0.46450650  0.58971896    -0.73100
C1202       C  0.74790478  0.47288021  0.60930907     0.97600
C1203       C  0.65940056  0.38446911  0.52387730     0.94000
Al1204     Al  0.73775169  0.38123526  0.52902756     1.55600
O1205       O  0.67131006  0.47052850  0.55056607    -0.77800
C1206       C  0.81300308  0.39508101  0.54095197     0.98200
C1207       C  0.71101598  0.35696695  0.59172294     0.93000
O1208       O  0.70743646  0.39069036  0.60101017    -0.83100
O1209       O  0.41873232  0.28576457  0.92907133    -0.82500
C1210       C  0.46101903  0.24175639  0.55208884     0.96800
O1211       O  0.42742314  0.24610419  0.54227035    -0.71600
O1212       O  0.40722694  0.31038233  0.51929107    -0.75200
Al1213     Al  0.40566606  0.26126943  0.50250973     1.49000
C1214       C  0.41015638  0.33991383  0.50377968     0.92100
O1215       O  0.49934204  0.31785748  0.98019857    -0.81500
O1216       O  0.48974082  0.21424295  0.94456320    -0.75000
Al1217     Al  0.45868543  0.30019119  0.95565996     1.90100
O1218       O  0.52880720  0.26317286  0.98393382    -0.74100
O1219       O  0.45529938  0.18628478  0.99663661    -0.73900
O1220       O  0.48812410  0.24006345  0.53338760    -0.79600
O1221       O  0.39864068  0.21035200  0.99002893    -0.77800
O1222       O  0.45113346  0.26276995  0.98207397    -1.13900
O1223       O  0.37692092  0.27644485  0.96590569    -0.73100
C1224       C  0.38493090  0.28288656  0.93733016     0.97600
C1225       C  0.52908841  0.29883164  0.98580433     0.94000
Al1226     Al  0.48788160  0.22833644  0.98832893     1.55600
O1227       O  0.42739791  0.33746732  0.97560821    -0.77800
C1228       C  0.41997432  0.18266306  0.99627857     0.98200
C1229       C  0.49849669  0.23816566  0.92419314     0.93000
O1230       O  0.49154783  0.27271362  0.92865494    -0.83100
O1231       O  0.30874076  0.39607337  0.85085153    -0.82500
C1232       C  0.26306133  0.43758066  0.72854834     0.96800
O1233       O  0.26571588  0.40386095  0.73802875    -0.71600
O1234       O  0.33024629  0.38148858  0.76136868    -0.75200
Al1235     Al  0.28125350  0.38237452  0.77799859     1.49000
C1236       C  0.36012413  0.38398149  0.77714692     0.92100
O1237       O  0.34347344  0.47193274  0.79823175    -0.81500
O1238       O  0.24035040  0.46896320  0.83417825    -0.75000
Al1239     Al  0.32448418  0.43376105  0.82351044     1.90100
O1240       O  0.29005406  0.50363570  0.79414717    -0.74100
O1241       O  0.20917679  0.43353528  0.78276011    -0.73900
O1242       O  0.26242787  0.46491311  0.74752972    -0.79600
O1243       O  0.23136173  0.37661680  0.79125668    -0.77800
O1244       O  0.28603238  0.42660853  0.79724864    -1.13900
O1245       O  0.29716510  0.35286682  0.81470772    -0.73100
C1246       C  0.30465545  0.36203628  0.84313686     0.97600
C1247       C  0.32564488  0.50209422  0.79205015     0.94000
Al1248     Al  0.25305730  0.46445985  0.79047188     1.55600
O1249       O  0.35979464  0.39989841  0.80373201    -0.77800
C1250       C  0.20422594  0.39848812  0.78455263     0.98200
C1251       C  0.26506729  0.47815080  0.85433562     0.93000
O1252       O  0.29924690  0.46953771  0.85012021    -0.83100
O1253       O  0.49124044  0.68562090  0.68207488    -0.82500
C1254       C  0.46546271  0.73226280  0.80180752     0.96800
O1255       O  0.49170143  0.72898462  0.78238277    -0.71600
O1256       O  0.52910782  0.69886851  0.73623515    -0.75200
Al1257     Al  0.48827825  0.73579004  0.73915706     1.49000
C1258       C  0.52967651  0.66361526  0.74045791     0.92100
O1259       O  0.42766494  0.62908360  0.73253972    -0.81500
O1260       O  0.37727285  0.69199068  0.72005120    -0.75000
Al1261     Al  0.45886268  0.66244409  0.71061320     1.90100
O1262       O  0.41006758  0.66143885  0.77399037    -0.74100
O1263       O  0.39962930  0.75835953  0.73959704    -0.73900
O1264       O  0.43142202  0.72830920  0.79335519    -0.79600
O1265       O  0.45614869  0.78031386  0.74542855    -0.77800
O1266       O  0.45151677  0.70273486  0.73502782    -1.13900
O1267       O  0.48926545  0.74544100  0.69500651    -0.73100
C1268       C  0.49823018  0.71926420  0.67589189     0.97600
C1269       C  0.41187572  0.63096413  0.75879687     0.94000
Al1270     Al  0.40825864  0.70948799  0.75509096     1.55600
O1271       O  0.50006054  0.64515041  0.73588551    -0.77800
C1272       C  0.42087875  0.78557701  0.74453918     0.98200
C1273       C  0.38515868  0.68355269  0.69169104     0.93000
O1274       O  0.41869658  0.67654949  0.68361149    -0.83100
O1275       O  0.30386820  0.50774117  0.60035379    -0.82500
C1276       C  0.25988562  0.53777029  0.97913188     0.96800
O1277       O  0.26358176  0.51125905  0.99836280    -0.71600
O1278       O  0.29364100  0.47375253  0.54470316    -0.75200
Al1279     Al  0.25522180  0.51248851  0.54233895     1.49000
C1280       C  0.32901757  0.47469669  0.54212790     0.92100
O1281       O  0.35827490  0.57779740  0.55355512    -0.81500
O1282       O  0.29411317  0.62415774  0.56770730    -0.75000
Al1283     Al  0.32613188  0.54341253  0.57372111     1.90100
O1284       O  0.32595725  0.59623336  0.51255701    -0.74100
O1285       O  0.22852471  0.59945204  0.54707875    -0.73900
O1286       O  0.26237620  0.57191229  0.98825091    -0.79600
O1287       O  0.21001533  0.54262915  0.53602468    -0.77800
O1288       O  0.28629097  0.55043073  0.54888530    -1.13900
O1289       O  0.24432287  0.50840596  0.58620217    -0.73100
C1290       C  0.27019040  0.49968795  0.60570781     0.97600
C1291       C  0.35651119  0.59474460  0.52768536     0.94000
Al1292     Al  0.27778270  0.59473297  0.53105193     1.55600
O1293       O  0.34609209  0.50497658  0.54717326    -0.77800
C1294       C  0.20294631  0.57739586  0.53909579     0.98200
C1295       C  0.30305301  0.61460120  0.59562641     0.93000
O1296       O  0.30944046  0.58060494  0.60225382    -0.83100
O1297       O  0.10238026  0.18491864  0.67783934    -0.82500
C1298       C  0.05476471  0.23130332  0.79878659     0.96800
O1299       O  0.08882121  0.22602069  0.79089831    -0.71600
O1300       O  0.11126767  0.16259169  0.76734472    -0.75200
Al1301     Al  0.11281971  0.21157369  0.75165312     1.49000
C1302       C  0.11073330  0.13311001  0.75110163     0.92100
O1303       O  0.02389910  0.15152266  0.72815150    -0.81500
O1304       O  0.03008538  0.25409541  0.69145630    -0.75000
Al1305     Al  0.06344652  0.16960624  0.70387231     1.90100
O1306       O  0.99296422  0.20560129  0.73083420    -0.74100
O1307       O  0.06405134  0.28541603  0.74406438    -0.73900
O1308       O  0.02916947  0.23330130  0.77834286    -0.79600
O1309       O  0.12123112  0.26187072  0.74057545    -0.77800
O1310       O  0.06993761  0.20819309  0.73029898    -1.13900
O1311       O  0.14413925  0.19635960  0.71537313    -0.73100
C1312       C  0.13604886  0.18945996  0.68651662     0.97600
C1313       C  0.99378320  0.17002218  0.73333971     0.94000
Al1314     Al  0.03247753  0.24200845  0.73544020     1.55600
O1315       O  0.09615835  0.13346868  0.72404646    -0.77800
C1316       C  0.09933402  0.28944418  0.74571120     0.98200
C1317       C  0.02036551  0.22890991  0.67184781     0.93000
O1318       O  0.02918778  0.19491447  0.67647488    -0.83100
O1319       O  0.21108760  0.07693846  0.59947643    -0.82500
C1320       C  0.25824648  0.03018293  0.97955352     0.96800
O1321       O  0.25564380  0.06465921  0.98805701    -0.71600
O1322       O  0.18914532  0.08621257  0.50925415    -0.75200
Al1323     Al  0.23806674  0.08762000  0.52674707     1.49000
C1324       C  0.15972001  0.08617824  0.52520221     0.92100
O1325       O  0.17696507  0.99898290  0.54676130    -0.81500
O1326       O  0.27983448  0.00529534  0.58519975    -0.75000
Al1327     Al  0.19544574  0.03818807  0.57228802     1.90100
O1328       O  0.23053455  0.96713780  0.54489553    -0.74100
O1329       O  0.31074280  0.03821374  0.53378861    -0.73900
O1330       O  0.25694512  0.00455922  0.99938480    -0.79600
O1331       O  0.28785497  0.09531613  0.54062787    -0.77800
O1332       O  0.23389907  0.04455834  0.54682329    -1.13900
O1333       O  0.22157128  0.11891373  0.56299525    -0.73100
C1334       C  0.21472848  0.11073580  0.59154542     0.97600
C1335       C  0.19499404  0.96877414  0.54093803     0.94000
Al1336     Al  0.26717188  0.00688468  0.54143833     1.55600
O1337       O  0.16009301  0.07134566  0.55192483    -0.77800
C1338       C  0.31517372  0.07350853  0.53443101     0.98200
C1339       C  0.25503318  0.99654143  0.60471462     0.93000
O1340       O  0.22068794  0.00366590  0.59946163    -0.83100
O1341       O  0.03230110  0.78190333  0.92367270    -0.82500
C1342       C  0.06102285  0.73742332  0.54336832     0.96800
O1343       O  0.03438323  0.74305980  0.52411648    -0.71600
O1344       O  0.99756841  0.77257732  0.47645489    -0.75200
Al1345     Al  0.03557023  0.73486308  0.98197114     1.49000
C1346       C  0.99878195  0.80917370  0.98175579     0.92100
O1347       O  0.10193359  0.83730835  0.97405375    -0.81500
O1348       O  0.14810320  0.77256505  0.96046485    -0.75000
Al1349     Al  0.06775870  0.80487193  0.95198984     1.90100
O1350       O  0.11920500  0.80410861  0.51426489    -0.74100
O1351       O  0.12290251  0.70614644  0.47898973    -0.73900
O1352       O  0.09507051  0.73857276  0.53442844    -0.79600
O1353       O  0.06549421  0.68928618  0.98909834    -0.77800
O1354       O  0.07388286  0.76544256  0.97676500    -1.13900
O1355       O  0.03260046  0.72278580  0.93816438    -0.73100
C1356       C  0.02451459  0.74787708  0.91816564     0.97600
C1357       C  0.11864225  0.83430002  0.49908773     0.94000
Al1358     Al  0.11810676  0.75558487  0.49534874     1.55600
O1359       O  0.02927571  0.82553570  0.97736384    -0.77800
C1360       C  0.10024644  0.68201247  0.98637153     0.98200
C1361       C  0.13916234  0.78053455  0.93218958     0.93000
O1362       O  0.10543210  0.78752398  0.92461872    -0.83100
O1363       O  0.21412865  0.96144760  0.85108614    -0.82500
C1364       C  0.25031468  0.93971103  0.72866919     0.96800
O1365       O  0.24883441  0.96429308  0.74985337    -0.71600
O1366       O  0.22102442  0.99815700  0.79776931    -0.75200
Al1367     Al  0.25920312  0.95888011  0.79212372     1.49000
C1368       C  0.18548421  0.99687234  0.79405715     0.92100
O1369       O  0.15508047  0.89382807  0.80237882    -0.81500
O1370       O  0.21805093  0.84712159  0.80848914    -0.75000
Al1371     Al  0.18971638  0.92706812  0.82297363     1.90100
O1372       O  0.18200935  0.88324695  0.75741259    -0.74100
O1373       O  0.28216681  0.87017889  0.78511555    -0.73900
O1374       O  0.24614460  0.90526613  0.73519152    -0.79600
O1375       O  0.30359419  0.92728867  0.78261782    -0.77800
O1376       O  0.22734171  0.92160447  0.79609848    -1.13900
O1377       O  0.27275850  0.95867689  0.83567538    -0.73100
C1378       C  0.24836447  0.96842342  0.85573277     0.97600
C1379       C  0.15369570  0.88133767  0.77454298     0.94000
Al1380     Al  0.23174755  0.87977715  0.77337957     1.55600
O1381       O  0.16841727  0.96691263  0.79945094    -0.77800
C1382       C  0.30885760  0.89193261  0.78068486     0.98200
C1383       C  0.21344015  0.85426699  0.83778277     0.93000
O1384       O  0.20893956  0.88770677  0.84766939    -0.83100
O1385       O  0.92216124  0.77546297  0.67092247    -0.82500
C1386       C  0.96300957  0.73205085  0.79392546     0.96800
O1387       O  0.92939347  0.73373263  0.78357769    -0.71600
O1388       O  0.90768661  0.79811930  0.76032248    -0.75200
Al1389     Al  0.90835688  0.74902544  0.74309023     1.49000
C1390       C  0.91058758  0.82784482  0.74498103     0.92100
O1391       O  0.99763584  0.81194169  0.72490873    -0.81500
O1392       O  0.99646344  0.70811776  0.68822839    -0.75000
Al1393     Al  0.95969430  0.79198929  0.69902998     1.90100
O1394       O  0.02981357  0.75872576  0.73062295    -0.74100
O1395       O  0.95973392  0.67741137  0.73921928    -0.73900
O1396       O  0.99040117  0.73125995  0.77550181    -0.79600
O1397       O  0.90285806  0.69880709  0.72886084    -0.77800
O1398       O  0.95277544  0.75386708  0.72489047    -1.13900
O1399       O  0.87886110  0.76509510  0.70609465    -0.73100
C1400       C  0.88798006  0.77314376  0.67810277     0.97600
C1401       C  0.02738262  0.79439541  0.73271064     0.94000
Al1402     Al  0.99078460  0.72130172  0.73235630     1.55600
O1403       O  0.92591593  0.82715251  0.71849649    -0.77800
C1404       C  0.92458076  0.67239669  0.73753865     0.98200
C1405       C  0.00487066  0.73299895  0.66845131     0.93000
O1406       O  0.99542321  0.76692981  0.67304918    -0.83100
O1407       O  0.81485969  0.89175363  0.59228970    -0.82500
C1408       C  0.76256427  0.93901523  0.97304045     0.96800
O1409       O  0.76468964  0.90516667  0.98194702    -0.71600
O1410       O  0.83267250  0.88411470  0.50107876    -0.75200
Al1411     Al  0.78489991  0.88090304  0.51982334     1.49000
C1412       C  0.86303532  0.88555761  0.51631728     0.92100
O1413       O  0.84486165  0.97160900  0.54108119    -0.81500
O1414       O  0.74407537  0.96420182  0.57966945    -0.75000
Al1415     Al  0.82823137  0.93154739  0.56559888     1.90100
O1416       O  0.79001769  0.00173322  0.53837184    -0.74100
O1417       O  0.71174413  0.92862286  0.52994854    -0.73900
O1418       O  0.76303902  0.96593271  0.99241370    -0.79600
O1419       O  0.73667963  0.87206427  0.53549661    -0.77800
O1420       O  0.78887956  0.92443030  0.54031460    -1.13900
O1421       O  0.80466119  0.85029760  0.55446759    -0.73100
C1422       C  0.81273718  0.85794289  0.58303965     0.97600
C1423       C  0.82553346  0.00107246  0.53569913     0.94000
Al1424     Al  0.75432372  0.96125502  0.53563381     1.55600
O1425       O  0.86320362  0.89968303  0.54363581    -0.77800
C1426       C  0.70831440  0.89337475  0.53183231     0.98200
C1427       C  0.76949104  0.97302164  0.59922622     0.93000
O1428       O  0.80353798  0.96534198  0.59375311    -0.83100
O1429       O  0.98991718  0.18961345  0.92932000    -0.82500
C1430       C  0.95847048  0.23318205  0.54838704     0.96800
O1431       O  0.98542389  0.23045658  0.52958335    -0.71600
O1432       O  0.02409242  0.20041850  0.48396799    -0.75200
Al1433     Al  0.98489653  0.23902388  0.98710099     1.49000
C1434       C  0.02337097  0.16520379  0.98892513     0.92100
O1435       O  0.92094441  0.13495347  0.97745416    -0.81500
O1436       O  0.87352829  0.19681113  0.96398567    -0.75000
Al1437     Al  0.95459252  0.16730605  0.95657260     1.90100
O1438       O  0.90413094  0.16359711  0.51691477    -0.74100
O1439       O  0.89563167  0.26197266  0.48427496    -0.73900
O1440       O  0.92468244  0.22986279  0.53888443    -0.79600
O1441       O  0.95351303  0.28401246  0.99293201    -0.77800
O1442       O  0.94744370  0.20726861  0.98128026    -1.13900
O1443       O  0.98840657  0.24929802  0.94311983    -0.73100
C1444       C  0.99757219  0.22336511  0.92384850     0.97600
C1445       C  0.90537566  0.13366861  0.50087602     0.94000
Al1446     Al  0.90308161  0.21240755  0.49911147     1.55600
O1447       O  0.99340997  0.14804479  0.98301618    -0.77800
C1448       C  0.91844954  0.29017639  0.99037240     0.98200
C1449       C  0.88237063  0.18811347  0.93583550     0.93000
O1450       O  0.91638133  0.18339306  0.92825761    -0.83100
O1451       O  0.81199949  0.00206854  0.84292871    -0.82500
C1452       C  0.76755255  0.03241790  0.72380074     0.96800
O1453       O  0.76943914  0.00494684  0.74225195    -0.71600
O1454       O  0.79857171  0.96566747  0.78793155    -0.75200
Al1455     Al  0.76183137  0.00563088  0.78550792     1.49000
C1456       C  0.83362984  0.96502714  0.78401697     0.92100
O1457       O  0.86755140  0.06647603  0.79227668    -0.81500
O1458       O  0.80001993  0.11697077  0.81109854    -0.75000
Al1459     Al  0.83510466  0.03498796  0.81452858     1.90100
O1460       O  0.83226421  0.09189177  0.75559823    -0.74100
O1461       O  0.73509843  0.09235549  0.78925422    -0.73900
O1462       O  0.76879657  0.06622870  0.73391825    -0.79600
O1463       O  0.71660810  0.03551295  0.77935292    -0.77800
O1464       O  0.79388808  0.04330648  0.79130729    -1.13900
O1465       O  0.75208375  0.00243112  0.82942996    -0.73100
C1466       C  0.77841218  0.99392848  0.84861360     0.97600
C1467       C  0.86388457  0.08631677  0.76817151     0.94000
Al1468     Al  0.78468354  0.08801115  0.77398361     1.55600
O1469       O  0.85189588  0.99472364  0.78808751    -0.77800
C1470       C  0.70941461  0.07018268  0.78193840     0.98200
C1471       C  0.81252966  0.10723328  0.83802449     0.93000
O1472       O  0.82300149  0.07376883  0.84309980    -0.83100
C1473       C  0.83020524  0.14777499  0.91953723    -0.21000
C1474       C  0.85339990  0.17772069  0.91220497    -0.07600
C1475       C  0.85525394  0.18954193  0.88059240     0.13300
C1476       C  0.83768331  0.16830238  0.85670177    -0.21100
C1477       C  0.81881161  0.13520206  0.86369141    -0.07600
C1478       C  0.81323794  0.12604396  0.89569396     0.13300
C1479       C  0.79068578  0.09251568  0.90490893    -0.24400
H1480       H  0.82856609  0.13884828  0.94380311     0.14500
H1481       H  0.84156155  0.17590222  0.83232243     0.14600
C1482       C  0.87677448  0.22362695  0.87135669    -0.24400
H1483       H  0.78674533  0.09147641  0.93077776     0.04800
H1484       H  0.80518970  0.06585978  0.89780204     0.08000
H1485       H  0.76243807  0.09418930  0.89356383     0.08000
H1486       H  0.88849310  0.23892360  0.89201404     0.08000
H1487       H  0.90025792  0.21500332  0.85565334     0.08000
H1488       H  0.85766125  0.24351113  0.85860785     0.04800
C1489       C  0.85668367  0.06025119  0.55033972    -0.21000
C1490       C  0.84496390  0.03520637  0.52672195    -0.07600
C1491       C  0.85372955  0.04189242  0.49511925     0.13300
C1492       C  0.87410274  0.07381113  0.48772449    -0.21100
C1493       C  0.88575574  0.09950649  0.51119381    -0.07600
C1494       C  0.87686472  0.09250843  0.54304334     0.13300
C1495       C  0.88905418  0.11818203  0.56955603    -0.24400
H1496       H  0.85010571  0.05439340  0.57462055     0.14500
H1497       H  0.88025719  0.07905632  0.46326093     0.14600
C1498       C  0.84128484  0.01546511  0.46921011    -0.24400
H1499       H  0.88160613  0.10694492  0.59290361     0.04800
H1500       H  0.87485801  0.14616569  0.56730889     0.08000
H1501       H  0.85978650  0.15429350  0.06377510     0.08000
H1502       H  0.81012555  0.01438791  0.46865771     0.08000
H1503       H  0.85315855  0.98676231  0.47340596     0.08000
H1504       H  0.85066930  0.02468990  0.44574005     0.04800
C1505       C  0.79241096  0.93506780  0.92163944    -0.21000
C1506       C  0.76189343  0.94771444  0.93949807    -0.07600
C1507       C  0.73427828  0.97198932  0.92610299     0.13300
C1508       C  0.73899056  0.98470643  0.89530262    -0.21100
C1509       C  0.77101268  0.97414788  0.87808264    -0.07600
C1510       C  0.79737651  0.94768078  0.89101163     0.13300
C1511       C  0.83125783  0.93190007  0.87376666    -0.24400
H1512       H  0.81341033  0.91630754  0.93213523     0.14500
H1513       H  0.71870863  0.00456775  0.88533462     0.14600
C1514       C  0.70008920  0.98467124  0.94433900    -0.24400
H1515       H  0.83131342  0.90068314  0.87461367     0.04800
H1516       H  0.85734949  0.94193168  0.88537982     0.08000
H1517       H  0.83183784  0.93922430  0.84862888     0.08000
H1518       H  0.70855394  0.00165483  0.96519031     0.08000
H1519       H  0.68465554  0.95972518  0.95219927     0.08000
H1520       H  0.68058386  0.00229031  0.92981298     0.04800
C1521       C  0.78443543  0.02398425  0.63643318    -0.21000
C1522       C  0.76125443  0.99368275  0.62857848    -0.07600
C1523       C  0.73623941  0.98015248  0.65094905     0.13300
C1524       C  0.73733108  0.99519843  0.68157614    -0.21100
C1525       C  0.76248836  0.02370229  0.69007151    -0.07600
C1526       C  0.78539381  0.03921520  0.66697442     0.13300
C1527       C  0.81291619  0.06958213  0.67492642    -0.24400
H1528       H  0.80352501  0.03430489  0.61896591     0.14500
H1529       H  0.71965621  0.98343475  0.69941600     0.14600
C1530       C  0.71038312  0.94830014  0.64321218    -0.24400
H1531       H  0.83290652  0.05958557  0.69345045     0.04800
H1532       H  0.79756170  0.09518348  0.68346934     0.08000
H1533       H  0.82950878  0.07748782  0.65412396     0.08000
H1534       H  0.72707250  0.92298351  0.63581800     0.08000
H1535       H  0.69086551  0.95669309  0.62382765     0.08000
H1536       H  0.69323336  0.94069394  0.66376970     0.04800
C1537       C  0.86881144  0.77890938  0.62203539    -0.21000
C1538       C  0.85958324  0.78490996  0.65382751    -0.07600
C1539       C  0.82917802  0.80991289  0.66108122     0.13300
C1540       C  0.81176095  0.83098339  0.63684575    -0.21100
C1541       C  0.82377635  0.82774108  0.60552698    -0.07600
C1542       C  0.85164201  0.80014468  0.59788223     0.13300
C1543       C  0.86617459  0.79545931  0.56484565    -0.24400
H1544       H  0.89197044  0.75974579  0.61632563     0.14500
H1545       H  0.79030944  0.85201041  0.64268593     0.14600
C1546       C  0.81699658  0.81705860  0.69449520    -0.24400
H1547       H  0.88858338  0.77324646  0.56324855     0.04800
H1548       H  0.87831596  0.82218890  0.55706385     0.08000
H1549       H  0.84295922  0.78742146  0.54864521     0.08000
H1550       H  0.84053545  0.82890048  0.70840734     0.08000
H1551       H  0.80815031  0.79034543  0.70513107     0.08000
H1552       H  0.79291404  0.83745854  0.69581353     0.04800
C1553       C  0.88965621  0.93101004  0.76272602    -0.21000
C1554       C  0.85332727  0.92923363  0.77524895    -0.07600
C1555       C  0.83696414  0.89345072  0.77902201     0.13300
C1556       C  0.85754676  0.86097442  0.77044903    -0.21100
C1557       C  0.89305274  0.86304448  0.75683106    -0.07600
C1558       C  0.90946197  0.89845483  0.75295886     0.13300
C1559       C  0.94799018  0.90215330  0.73902404    -0.24400
H1560       H  0.90234484  0.95814870  0.75975682     0.14500
H1561       H  0.84502433  0.83366322  0.77299610     0.14600
C1562       C  0.79777477  0.88856987  0.79145965    -0.24400
H1563       H  0.95735823  0.93174040  0.73973189     0.04800
H1564       H  0.94770212  0.89289538  0.71400416     0.08000
H1565       H  0.96880419  0.88478433  0.75247411     0.08000
H1566       H  0.77677907  0.90160166  0.77515471     0.08000
H1567       H  0.79512292  0.90142558  0.81523043     0.08000
H1568       H  0.79066159  0.85843940  0.79347004     0.04800
C1569       C  0.07616325  0.84104746  0.72262561    -0.21000
C1570       C  0.05974393  0.81624493  0.74359859    -0.07600
C1571       C  0.07283007  0.81458333  0.77499445     0.13300
C1572       C  0.10263491  0.83732845  0.78455599    -0.21100
C1573       C  0.12025760  0.86102655  0.76327324    -0.07600
C1574       C  0.10698088  0.86275304  0.73178709     0.13300
C1575       C  0.12461626  0.88772338  0.70788897    -0.24400
H1576       H  0.06508461  0.84313646  0.69886129     0.14500
H1577       H  0.11294515  0.83578264  0.80862419     0.14600
C1578       C  0.05488017  0.78950994  0.79859852    -0.24400
H1579       H  0.10921178  0.88704922  0.68501337     0.04800
H1580       H  0.15399632  0.87814990  0.70336870     0.08000
H1581       H  0.12435015  0.91725034  0.71663594     0.08000
H1582       H  0.05825540  0.75966167  0.79101821     0.08000
H1583       H  0.02449655  0.79697240  0.80054029     0.08000
H1584       H  0.06790865  0.79244960  0.82234935     0.04800
C1585       C  0.93306015  0.82420044  0.47023891    -0.21000
C1586       C  0.96467889  0.83150569  0.98951686    -0.07600
C1587       C  0.96579661  0.85662578  0.51269872     0.13300
C1588       C  0.93208552  0.87550417  0.52032274    -0.21100
C1589       C  0.89843060  0.86867106  0.50363975    -0.07600
C1590       C  0.89925464  0.84316933  0.47764234     0.13300
C1591       C  0.86489521  0.83472966  0.45792095    -0.24400
H1592       H  0.93096921  0.79905695  0.95747952     0.14500
H1593       H  0.93193257  0.89501679  0.54010040     0.14600
C1594       C  0.00070122  0.87303778  0.02823755    -0.24400
H1595       H  0.87131214  0.81436565  0.43858284     0.04800
H1596       H  0.84871319  0.85161361  0.95189688     0.08000
H1597       H  0.84305280  0.82218263  0.47272394     0.08000
H1598       H  0.02092881  0.88391354  0.01106111     0.08000
H1599       H  0.01110048  0.83659149  0.54267375     0.08000
H1600       H  0.99485789  0.88360320  0.55205891     0.04800
C1601       C  0.19782181  0.81044889  0.91620266    -0.21000
C1602       C  0.16804741  0.78694537  0.90811094    -0.07600
C1603       C  0.16182603  0.77759680  0.87596850     0.13300
C1604       C  0.18208918  0.79598778  0.85268838    -0.21100
C1605       C  0.20762785  0.82403927  0.86083347    -0.07600
C1606       C  0.21773173  0.82911142  0.89295088     0.13300
C1607       C  0.24782809  0.85581537  0.90345943    -0.24400
H1608       H  0.20327904  0.81716934  0.94078728     0.14500
H1609       H  0.17470926  0.79155155  0.82810775     0.14600
C1610       C  0.13274736  0.74948334  0.86601688    -0.24400
H1611       H  0.26328810  0.86751380  0.88340972     0.04800
H1612       H  0.26875008  0.84062175  0.91850710     0.08000
H1613       H  0.23501936  0.87941497  0.91729870     0.08000
H1614       H  0.10401378  0.76009144  0.87160386     0.08000
H1615       H  0.13832343  0.72247334  0.87827003     0.08000
H1616       H  0.13345269  0.74380429  0.84026562     0.04800
C1617       C  0.00863247  0.70371303  0.61532568    -0.21000
C1618       C  0.02592989  0.72460480  0.63924202    -0.07600
C1619       C  0.05856694  0.74497974  0.63221119     0.13300
C1620       C  0.07119007  0.74652328  0.60101745    -0.21100
C1621       C  0.05140251  0.72901521  0.57649554    -0.07600
C1622       C  0.02081053  0.70574710  0.58398641     0.13300
C1623       C  0.00047341  0.68322242  0.55908591    -0.24400
H1624       H  0.98370049  0.68816294  0.62071270     0.14500
H1625       H  0.09505298  0.76357657  0.59549954     0.14600
C1626       C  0.07935472  0.76640556  0.65748171    -0.24400
H1627       H  0.97970571  0.66429952  0.56955088     0.04800
H1628       H  0.02099419  0.66548649  0.54570186     0.08000
H1629       H  0.98478150  0.70219681  0.54281078     0.08000
H1630       H  0.08782215  0.74711709  0.67679841     0.08000
H1631       H  0.06110689  0.78937830  0.66694499     0.08000
H1632       H  0.10509664  0.77934072  0.64831336     0.04800
C1633       C  0.99815368  0.70468252  0.83898620    -0.21000
C1634       C  0.97168735  0.73156449  0.82794477    -0.07600
C1635       C  0.95981042  0.76122028  0.84806283     0.13300
C1636       C  0.97626303  0.76447402  0.87810079    -0.21100
C1637       C  0.00433575  0.73885385  0.88850369    -0.07600
C1638       C  0.01445161  0.70777808  0.86916480     0.13300
C1639       C  0.04390866  0.67918426  0.87940734    -0.24400
H1640       H  0.00733362  0.68208754  0.82332540     0.14500
H1641       H  0.96820335  0.78806423  0.89315921     0.14600
C1642       C  0.93193905  0.79100089  0.83715662    -0.24400
H1643       H  0.04939799  0.65759173  0.86082101     0.04800
H1644       H  0.03432142  0.66448342  0.90067016     0.08000
H1645       H  0.07073515  0.69334937  0.88482473     0.08000
H1646       H  0.90489507  0.77787095  0.83064189     0.08000
H1647       H  0.94321343  0.80562614  0.81646848     0.08000
H1648       H  0.92620521  0.81246859  0.85579602     0.04800
C1649       C  0.12165020  0.90484869  0.00707759    -0.21000
C1650       C  0.13754034  0.86808078  0.51172682    -0.07600
C1651       C  0.17307770  0.86587521  0.52700946     0.13300
C1652       C  0.19105494  0.89915780  0.53591337    -0.21100
C1653       C  0.17437962  0.93475387  0.53052356    -0.07600
C1654       C  0.13877341  0.93688593  0.51505555     0.13300
C1655       C  0.12138457  0.97529392  0.00788747    -0.24400
H1656       H  0.09494758  0.90682631  0.99455799     0.14500
H1657       H  0.21846954  0.89725210  0.54722969     0.14600
C1658       C  0.19303883  0.82868809  0.53289755    -0.24400
H1659       H  0.09535884  0.97165972  0.99359828     0.04800
H1660       H  0.14101228  0.99204564  0.99387383     0.08000
H1661       H  0.11332053  0.99109829  0.02954214     0.08000
H1662       H  0.19682834  0.81310587  0.51031113     0.08000
H1663       H  0.17649611  0.81169759  0.54927691     0.08000
H1664       H  0.22129100  0.83242669  0.54372957     0.04800
C1665       C  0.09229239  0.15863895  0.48977663    -0.21000
C1666       C  0.05799776  0.14394170  0.99870465    -0.07600
C1667       C  0.05738200  0.10887794  0.01433401     0.13300
C1668       C  0.09155352  0.09086925  0.02289103    -0.21100
C1669       C  0.12507325  0.10533644  0.51366060    -0.07600
C1670       C  0.12608609  0.13977438  0.49734922     0.13300
C1671       C  0.16252372  0.15787869  0.48893558    -0.24400
H1672       H  0.09325011  0.18534416  0.47800175     0.14500
H1673       H  0.09118564  0.06438267  0.03526707     0.14600
C1674       C  0.02111705  0.09070207  0.02309421    -0.24400
H1675       H  0.15773412  0.18556195  0.47753329     0.04800
H1676       H  0.17837535  0.13962449  0.47210358     0.08000
H1677       H  0.17970369  0.16260139  0.51053900     0.08000
H1678       H  0.00517794  0.08268022  0.00154227     0.08000
H1679       H  0.00385499  0.11045996  0.03769512     0.08000
H1680       H  0.02621432  0.06467186  0.03687054     0.04800
C1681       C  0.24516587  0.03917063  0.92257428    -0.21000
C1682       C  0.26314153  0.01829501  0.94631302    -0.07600
C1683       C  0.28267384  0.98407421  0.93816421     0.13300
C1684       C  0.28012675  0.96997753  0.90732744    -0.21100
C1685       C  0.25857384  0.98883878  0.88468517    -0.07600
C1686       C  0.24242453  0.02464823  0.89180462     0.13300
C1687       C  0.22203646  0.04739475  0.86699639    -0.24400
H1688       H  0.23123823  0.06572553  0.92848510     0.14500
H1689       H  0.29283010  0.94280905  0.90141584     0.14600
C1690       C  0.30570733  0.96144728  0.96165652    -0.24400
H1691       H  0.21233686  0.07527746  0.87624108     0.04800
H1692       H  0.19698514  0.03232071  0.85825631     0.08000
H1693       H  0.24134957  0.05218764  0.84718646     0.08000
H1694       H  0.28718291  0.94815521  0.97892455     0.08000
H1695       H  0.32611017  0.97973093  0.97400486     0.08000
H1696       H  0.32202587  0.93827210  0.95003081     0.04800
C1697       C  0.24777101  0.92884896  0.67088001    -0.21000
C1698       C  0.25796305  0.95213293  0.69623155    -0.07600
C1699       C  0.27524002  0.98713758  0.69003346     0.13300
C1700       C  0.27827639  0.99908302  0.65891596    -0.21100
C1701       C  0.26438071  0.97742915  0.63411016    -0.07600
C1702       C  0.25042723  0.94131934  0.63986224     0.13300
C1703       C  0.23707768  0.91649921  0.61326411    -0.24400
H1704       H  0.23583847  0.90168532  0.67534316     0.14500
H1705       H  0.28888356  0.02674488  0.65407646     0.14600
C1706       C  0.29017672  0.01277127  0.71563747    -0.24400
H1707       H  0.22846446  0.88856832  0.62170641     0.04800
H1708       H  0.26009977  0.91197259  0.59610056     0.08000
H1709       H  0.21243697  0.92992182  0.60133264     0.08000
H1710       H  0.31045878  0.99696821  0.73085444     0.08000
H1711       H  0.26670241  0.02471757  0.72986424     0.08000
H1712       H  0.30518267  0.03699295  0.70584927     0.04800
C1713       C  0.89398155  0.14590780  0.75729814    -0.21000
C1714       C  0.89629397  0.10656936  0.75663065    -0.07600
C1715       C  0.93004553  0.08808477  0.74797688     0.13300
C1716       C  0.96092040  0.10964132  0.73990549    -0.21100
C1717       C  0.95927193  0.14934986  0.74123782    -0.07600
C1718       C  0.92510158  0.16767923  0.75039336     0.13300
C1719       C  0.92105886  0.20982182  0.75437318    -0.24400
H1720       H  0.86794106  0.15967131  0.76469139     0.14500
H1721       H  0.98669901  0.09514261  0.73293929     0.14600
C1722       C  0.93334097  0.04573232  0.74692445    -0.24400
H1723       H  0.89272914  0.21850785  0.76293019     0.04800
H1724       H  0.92507525  0.22393245  0.73157207     0.08000
H1725       H  0.94191911  0.21986906  0.77198159     0.08000
H1726       H  0.91171349  0.03433290  0.73060422     0.08000
H1727       H  0.92919353  0.03423082  0.77077057     0.08000
H1728       H  0.96142340  0.03582922  0.73865411     0.04800
C1729       C  0.06301900  0.21266460  0.85458647    -0.21000
C1730       C  0.04394080  0.23489306  0.83228303    -0.07600
C1731       C  0.01321796  0.25839317  0.84209425     0.13300
C1732       C  0.00043455  0.25632097  0.87313694    -0.21100
C1733       C  0.01724437  0.23127251  0.89440258    -0.07600
C1734       C  0.04993324  0.21042451  0.88552504     0.13300
C1735       C  0.07134737  0.18612756  0.90872967    -0.24400
H1736       H  0.08714395  0.19556957  0.84741051     0.14500
H1737       H  0.97576756  0.27263549  0.88028196     0.14600
C1738       C  0.99348014  0.28569110  0.82015653    -0.24400
H1739       H  0.09713469  0.17325735  0.89824780     0.04800
H1740       H  0.05374392  0.16292357  0.91691005     0.08000
H1741       H  0.08001624  0.20377178  0.92910520     0.08000
H1742       H  0.97778693  0.27032410  0.80157464     0.08000
H1743       H  0.01426763  0.30418690  0.80924988     0.08000
H1744       H  0.97274387  0.30401093  0.83277563     0.04800
C1745       C  0.01023552  0.26395565  0.62226532    -0.21000
C1746       C  0.99768712  0.23731828  0.64340709    -0.07600
C1747       C  0.96666848  0.21471500  0.63488379     0.13300
C1748       C  0.95191728  0.21635513  0.60419950    -0.21100
C1749       C  0.96765019  0.23964327  0.58190066    -0.07600
C1750       C  0.99560071  0.26537937  0.59145517     0.13300
C1751       C  0.01039331  0.29412693  0.56920060    -0.24400
H1752       H  0.03334047  0.28176896  0.62909687     0.14500
H1753       H  0.92985231  0.19743926  0.59699821     0.14600
C1754       C  0.94922568  0.18835199  0.65784354    -0.24400
H1755       H  0.02962682  0.31383167  0.58140019     0.04800
H1756       H  0.98658797  0.31094104  0.55907780     0.08000
H1757       H  0.02647261  0.28016217  0.54998173     0.08000
H1758       H  0.94068052  0.20428492  0.67926179     0.08000
H1759       H  0.96925368  0.16529581  0.66429963     0.08000
H1760       H  0.92375350  0.17506873  0.64776475     0.04800
C1761       C  0.19544911  0.15677556  0.67093699    -0.21000
C1762       C  0.16570312  0.18150327  0.66269551    -0.07600
C1763       C  0.15956317  0.18957491  0.63037829     0.13300
C1764       C  0.17955426  0.16895072  0.60727107    -0.21100
C1765       C  0.20549384  0.14029669  0.61555757    -0.07600
C1766       C  0.21513993  0.13576079  0.64782141     0.13300
C1767       C  0.24506358  0.10763662  0.65817455    -0.24400
H1768       H  0.20065845  0.15080378  0.69558018     0.14500
H1769       H  0.17236603  0.17311726  0.58266446     0.14600
C1770       C  0.13086237  0.21860782  0.61945854    -0.24400
H1771       H  0.25096096  0.10991280  0.68384370     0.04800
H1772       H  0.27160730  0.11273473  0.64557670     0.08000
H1773       H  0.23599167  0.07850464  0.65333996     0.08000
H1774       H  0.11831233  0.23503432  0.63921905     0.08000
H1775       H  0.10804866  0.20461531  0.60603333     0.08000
H1776       H  0.14457371  0.23893795  0.60388785     0.04800
C1777       C  0.18215497  0.06578544  0.78749639    -0.21000
C1778       C  0.16429028  0.03119335  0.78398815    -0.07600
C1779       C  0.12792332  0.03042939  0.76980786     0.13300
C1780       C  0.11098587  0.06421179  0.75936163    -0.21100
C1781       C  0.12898145  0.09859450  0.76328919    -0.07600
C1782       C  0.16502904  0.09940725  0.77756577     0.13300
C1783       C  0.18651330  0.13533661  0.78124333    -0.24400
H1784       H  0.21003896  0.06665897  0.79790095     0.14500
H1785       H  0.08344395  0.06388089  0.74817206     0.14600
C1786       C  0.10703990  0.99439391  0.76468159    -0.24400
H1787       H  0.21518415  0.13018294  0.79113371     0.04800
H1788       H  0.17159985  0.15499350  0.79757037     0.08000
H1789       H  0.18954964  0.14871241  0.75795842     0.08000
H1790       H  0.10066108  0.98162300  0.78767075     0.08000
H1791       H  0.12425700  0.97442047  0.75028482     0.08000
H1792       H  0.07985353  0.99924527  0.75208720     0.04800
C1793       C  0.11701148  0.64063610  0.53087973    -0.21000
C1794       C  0.11652899  0.64514917  0.49801922    -0.07600
C1795       C  0.13897387  0.62241383  0.97908917     0.13300
C1796       C  0.16366239  0.59504550  0.49368141    -0.21100
C1797       C  0.16749179  0.59385070  0.52663555    -0.07600
C1798       C  0.14306933  0.61592817  0.54547327     0.13300
C1799       C  0.14584804  0.61468905  0.58082760    -0.24400
H1800       H  0.09969698  0.65924729  0.54535398     0.14500
H1801       H  0.18289759  0.57964461  0.97833682     0.14600
C1802       C  0.13659599  0.62503111  0.94377657    -0.24400
H1803       H  0.12444811  0.63354490  0.59208152     0.04800
H1804       H  0.17407841  0.62372683  0.58883359     0.08000
H1805       H  0.14135731  0.58553128  0.58884036     0.08000
H1806       H  0.14491394  0.65339623  0.93617655     0.08000
H1807       H  0.10730039  0.62001666  0.93576695     0.08000
H1808       H  0.15542523  0.60387629  0.93213170     0.04800
C1809       C  0.37872693  0.83837551  0.72947926    -0.21000
C1810       C  0.40292297  0.82267300  0.75209850    -0.07600
C1811       C  0.40056783  0.83629424  0.78363575     0.13300
C1812       C  0.37127356  0.86159071  0.79224636    -0.21100
C1813       C  0.34506814  0.87475665  0.76996302    -0.07600
C1814       C  0.35016214  0.86437391  0.73788847     0.13300
C1815       C  0.32394851  0.87824623  0.71244897    -0.24400
H1816       H  0.38023153  0.82787962  0.70544141     0.14500
H1817       H  0.36773380  0.86946192  0.81678978     0.14600
C1818       C  0.42692805  0.82308679  0.80925948    -0.24400
H1819       H  0.33392927  0.86995076  0.68862599     0.04800
H1820       H  0.32199664  0.90940154  0.71344843     0.08000
H1821       H  0.29613852  0.86558016  0.71542854     0.08000
H1822       H  0.45054527  0.80606648  0.79987088     0.08000
H1823       H  0.41148405  0.80631879  0.82657203     0.08000
H1824       H  0.43922796  0.84776960  0.82146793     0.04800
C1825       C  0.32481531  0.65535520  0.67569271    -0.21000
C1826       C  0.35504047  0.67800210  0.66785948    -0.07600
C1827       C  0.36005980  0.68768222  0.63597860     0.13300
C1828       C  0.33847344  0.67006675  0.61248259    -0.21100
C1829       C  0.31222316  0.64290487  0.62011479    -0.07600
C1830       C  0.30353058  0.63729949  0.65213873     0.13300
C1831       C  0.27292927  0.61112354  0.66154887    -0.24400
H1832       H  0.32023577  0.64870577  0.70014929     0.14500
H1833       H  0.34482369  0.67495711  0.58797559     0.14600
C1834       C  0.38903652  0.71525408  0.62591118    -0.24400
H1835       H  0.26849996  0.61182369  0.68738084     0.04800
H1836       H  0.28021992  0.58165076  0.65479701     0.08000
H1837       H  0.24605589  0.61973409  0.64987124     0.08000
H1838       H  0.40300610  0.72940663  0.64612544     0.08000
H1839       H  0.37517569  0.73760125  0.61154272     0.08000
H1840       H  0.41077476  0.70048573  0.61148889     0.04800
C1841       C  0.12846616  0.35162525  0.73566630    -0.21000
C1842       C  0.11623319  0.32514710  0.75722656    -0.07600
C1843       C  0.12699522  0.32945314  0.78935396     0.13300
C1844       C  0.15237924  0.35730252  0.79842031    -0.21100
C1845       C  0.16767335  0.38119963  0.77639364    -0.07600
C1846       C  0.15390467  0.37976356  0.74491003     0.13300
C1847       C  0.16825590  0.40572237  0.72037719    -0.24400
H1848       H  0.12033776  0.34859572  0.71111957     0.14500
H1849       H  0.16291483  0.35830132  0.82246816     0.14600
C1850       C  0.11443427  0.30295924  0.81413418    -0.24400
H1851       H  0.15344328  0.40200136  0.69744183     0.04800
H1852       H  0.19845370  0.39959466  0.71653691     0.08000
H1853       H  0.16399024  0.43540063  0.72819127     0.08000
H1854       H  0.12811511  0.27508432  0.81016475     0.08000
H1855       H  0.08339576  0.30131018  0.81343902     0.08000
H1856       H  0.12269470  0.31245377  0.83817842     0.04800
C1857       C  0.35215687  0.59897700  0.76276581    -0.21000
C1858       C  0.39076112  0.59864315  0.76934009    -0.07600
C1859       C  0.40822389  0.56670309  0.78273282     0.13300
C1860       C  0.38614960  0.53588371  0.79019648    -0.21100
C1861       C  0.34710615  0.53593176  0.78372125    -0.07600
C1862       C  0.33009131  0.56792569  0.76922682     0.13300
C1863       C  0.28924613  0.56946817  0.75927465    -0.24400
H1864       H  0.33937994  0.62352854  0.75169607     0.14500
H1865       H  0.39964798  0.51155675  0.80101844     0.14600
C1866       C  0.44998140  0.56524234  0.78903309    -0.24400
H1867       H  0.28183708  0.59581309  0.74659161     0.04800
H1868       H  0.27098013  0.56855838  0.78022690     0.08000
H1869       H  0.28320056  0.54552724  0.74311556     0.08000
H1870       H  0.45770793  0.58852190  0.80532694     0.08000
H1871       H  0.46529144  0.56824676  0.76660677     0.08000
H1872       H  0.45918798  0.53820715  0.79984638     0.04800
C1873       C  0.29115447  0.45272740  0.64472287    -0.21000
C1874       C  0.26303981  0.47861881  0.63471203    -0.07600
C1875       C  0.23213305  0.48669052  0.65435879     0.13300
C1876       C  0.23153356  0.47060313  0.68438554    -0.21100
C1877       C  0.26071991  0.44630092  0.69485856    -0.07600
C1878       C  0.29039271  0.43650001  0.67454378     0.13300
C1879       C  0.32272330  0.41134714  0.68512630    -0.24400
H1880       H  0.31499198  0.44657933  0.62969394     0.14500
H1881       H  0.20907431  0.47840311  0.70039167     0.14600
C1882       C  0.20120137  0.51398624  0.64471035    -0.24400
H1883       H  0.34407788  0.40733674  0.66644035    -0.09600
H1884       H  0.31219809  0.38324934  0.69126944     0.08000
H1885       H  0.33680017  0.42399364  0.70603545     0.08000
H1886       H  0.18666090  0.50326104  0.62328758     0.08000
H1887       H  0.21315033  0.54187336  0.63980338     0.08000
H1888       H  0.17987719  0.51786310  0.66343464     0.04800
C1889       C  0.27289647  0.54681849  0.92243253    -0.21000
C1890       C  0.25340229  0.52771819  0.94557152    -0.07600
C1891       C  0.23124862  0.49652035  0.93652677     0.13300
C1892       C  0.23255015  0.48287284  0.90538936    -0.21100
C1893       C  0.25556411  0.49940312  0.88329042    -0.07600
C1894       C  0.27448596  0.53284811  0.89139268     0.13300
C1895       C  0.29697296  0.55347146  0.86744372    -0.24400
H1896       H  0.28903217  0.57120223  0.92909379     0.14500
H1897       H  0.21772751  0.45758421  0.89890038     0.14600
C1898       C  0.20645981  0.47707293  0.95954890    -0.24400
H1899       H  0.30828874  0.58001428  0.87733079     0.04800
H1900       H  0.27875304  0.56071138  0.84689800     0.08000
H1901       H  0.32119428  0.53578995  0.85943163     0.08000
H1902       H  0.18762435  0.49810440  0.97132092     0.08000
H1903       H  0.22373685  0.46186055  0.97740061     0.08000
H1904       H  0.18852766  0.45595863  0.94761406     0.04800
C1905       C  0.37068440  0.11172928  0.54742934    -0.21000
C1906       C  0.35099066  0.09089046  0.52487844    -0.07600
C1907       C  0.35935594  0.09624617  0.49260796     0.13300
C1908       C  0.38329740  0.12525491  0.48375805    -0.21100
C1909       C  0.40107926  0.14782012  0.50633653    -0.07600
C1910       C  0.39594909  0.13955255  0.53864236     0.13300
C1911       C  0.41458456  0.16183658  0.56429187    -0.24400
H1912       H  0.36420340  0.10812030  0.57206440     0.14500
H1913       H  0.38894636  0.12972394  0.95912640     0.14600
C1914       C  0.34222675  0.07300236  0.46674332    -0.24400
H1915       H  0.41045162  0.14940526  0.58783085     0.04800
H1916       H  0.40203129  0.19055290  0.56495429     0.08000
H1917       H  0.44689276  0.16274487  0.06011546     0.08000
H1918       H  0.32179295  0.09040181  0.45293445     0.08000
H1919       H  0.33002546  0.04702853  0.97668760     0.08000
H1920       H  0.36463748  0.06204054  0.45088148     0.04800
C1921       C  0.32598179  0.31731127  0.92215458    -0.21000
C1922       C  0.35510576  0.29196835  0.91354691    -0.07600
C1923       C  0.36012994  0.28340655  0.88118040     0.13300
C1924       C  0.33984404  0.30408546  0.85838157    -0.21100
C1925       C  0.31442776  0.33306667  0.86701925    -0.07600
C1926       C  0.30566687  0.33810593  0.89928202     0.13300
C1927       C  0.27564162  0.36604707  0.90976288    -0.24400
H1928       H  0.32147692  0.32354213  0.94687710     0.14500
H1929       H  0.34623594  0.29948400  0.83371750     0.14600
C1930       C  0.38773256  0.25355719  0.86989479    -0.24400
H1931       H  0.27079389  0.36451180  0.93548837     0.04800
H1932       H  0.24873990  0.35993807  0.89743581     0.08000
H1933       H  0.28382622  0.39522119  0.90462530     0.08000
H1934       H  0.40019887  0.23690526  0.88945808     0.08000
H1935       H  0.41064528  0.26679668  0.85672828     0.08000
H1936       H  0.37307847  0.23352015  0.85401502     0.04800
C1937       C  0.35860337  0.37195322  0.53204184    -0.21000
C1938       C  0.39219343  0.37505972  0.51547544    -0.07600
C1939       C  0.40604900  0.41110604  0.50911103     0.13300
C1940       C  0.38512694  0.44310236  0.51866550    -0.21100
C1941       C  0.35047425  0.43993449  0.53386196    -0.07600
C1942       C  0.33734856  0.40372070  0.54109215     0.13300
C1943       C  0.30125495  0.39782491  0.55853705    -0.24400
H1944       H  0.34809073  0.34426742  0.53696007     0.14500
H1945       H  0.39549806  0.47077791  0.51354521     0.14600
C1946       C  0.43983339  0.41611904  0.98524263    -0.24400
H1947       H  0.29718579  0.36771075  0.56395590     0.04800
H1948       H  0.27678253  0.40726784  0.54399985     0.08000
H1949       H  0.30167854  0.41358604  0.58119368     0.08000
H1950       H  0.43632344  0.40397680  0.96125122     0.08000
H1951       H  0.46573805  0.40080396  0.50597079     0.08000
H1952       H  0.44593169  0.44640837  0.98253798     0.04800
C1953       C  0.89557915  0.32675729  0.53658843    -0.21000
C1954       C  0.89970511  0.32381229  0.50375801    -0.07600
C1955       C  0.87777953  0.34876533  0.98321755     0.13300
C1956       C  0.85333226  0.37537141  0.99751451    -0.21100
C1957       C  0.84886088  0.37728276  0.53055246    -0.07600
C1958       C  0.86969733  0.35255814  0.55013325     0.13300
C1959       C  0.86328930  0.35225836  0.58510311    -0.24400
H1960       H  0.91020037  0.30654601  0.55152315     0.14500
H1961       H  0.83410222  0.39173590  0.98286911     0.14600
C1962       C  0.87742649  0.34399815  0.94796606    -0.24400
H1963       H  0.88220411  0.33150357  0.59708871     0.04800
H1964       H  0.83382682  0.34476381  0.59000435     0.08000
H1965       H  0.86874916  0.38056304  0.59523360     0.08000
H1966       H  0.86844667  0.31523073  0.94140401     0.08000
H1967       H  0.90606938  0.34839867  0.93878871     0.08000
H1968       H  0.85776605  0.36450008  0.93649715     0.04800
C1969       C  0.63010754  0.32820527  0.50076215    -0.21000
C1970       C  0.62596601  0.36571087  0.51091956    -0.07600
C1971       C  0.59172795  0.37804352  0.01279201     0.13300
C1972       C  0.56046240  0.35671889  0.00446993    -0.21100
C1973       C  0.56415812  0.31902502  0.99425591    -0.07600
C1974       C  0.59876617  0.30610828  0.49386323     0.13300
C1975       C  0.60557784  0.26545877  0.48465128    -0.24400
H1976       H  0.65810282  0.31547152  0.49995650     0.14500
H1977       H  0.53276783  0.36991782  0.00616938     0.14600
C1978       C  0.58469577  0.41854745  0.02237672    -0.24400
H1979       H  0.63605542  0.25810907  0.48342226     0.04800
H1980       H  0.59304665  0.25976798  0.46111485     0.08000
H1981       H  0.59316399  0.24687551  0.50238299     0.08000
H1982       H  0.61082154  0.43453323  0.02531522     0.08000
H1983       H  0.56891411  0.41979379  0.04477203     0.08000
H1984       H  0.56768874  0.43297294  0.00384239     0.04800
C1985       C  0.63701376  0.12012925  0.73205749    -0.21000
C1986       C  0.61969439  0.14311249  0.75479815    -0.07600
C1987       C  0.62527913  0.13432969  0.78706410     0.13300
C1988       C  0.65217467  0.10674637  0.79572361    -0.21100
C1989       C  0.67215044  0.08628458  0.77298488    -0.07600
C1990       C  0.66189451  0.09070486  0.74083537     0.13300
C1991       C  0.67796497  0.06614522  0.71511167    -0.24400
H1992       H  0.63214190  0.12594638  0.70732206     0.14500
H1993       H  0.65970113  0.10315373  0.82033701     0.14600
C1994       C  0.60584959  0.15606226  0.81283059    -0.24400
H1995       H  0.65480725  0.05546439  0.69998176     0.04800
H1996       H  0.69290251  0.04118363  0.72464782     0.08000
H1997       H  0.69722727  0.08252459  0.70046843     0.08000
H1998       H  0.57525622  0.15827954  0.80764792     0.08000
H1999       H  0.61846543  0.18405475  0.81513790     0.08000
H2000       H  0.60945279  0.14206330  0.83594537     0.04800
C2001       C  0.46289749  0.36035479  0.76046200    -0.21000
C2002       C  0.46031907  0.32392196  0.74744010    -0.07600
C2003       C  0.42412381  0.30872160  0.74231628     0.13300
C2004       C  0.39210714  0.32984750  0.75122840    -0.21100
C2005       C  0.39496691  0.36540695  0.76552140    -0.07600
C2006       C  0.43076702  0.38119819  0.76968635     0.13300
C2007       C  0.43525594  0.42032793  0.78306757    -0.24400
H2008       H  0.49032770  0.37245386  0.76401042     0.14500
H2009       H  0.36452884  0.31793613  0.74793804     0.14600
C2010       C  0.41845425  0.27054660  0.72730244    -0.24400
H2011       H  0.46499940  0.42911836  0.78263511     0.04800
H2012       H  0.42606203  0.42151135  0.80791749     0.08000
H2013       H  0.41822328  0.44076568  0.76899542     0.08000
H2014       H  0.43035422  0.24815886  0.74271498     0.08000
H2015       H  0.43207232  0.26915406  0.70394154     0.08000
H2016       H  0.38819463  0.26459468  0.72362343     0.04800
C2017       C  0.51999889  0.20830924  0.84082394    -0.21000
C2018       C  0.55098199  0.23117793  0.83492420    -0.07600
C2019       C  0.56850041  0.24985664  0.86033490     0.13300
C2020       C  0.55239557  0.24814016  0.89024674    -0.21100
C2021       C  0.51945592  0.22805871  0.89550464    -0.07600
C2022       C  0.50388266  0.20660690  0.87073609     0.13300
C2023       C  0.46900193  0.18385632  0.87425593    -0.24400
H2024       H  0.50696204  0.19305800  0.82149610     0.14500
H2025       H  0.56398377  0.26498243  0.90923944     0.14600
C2026       C  0.60222141  0.27391660  0.85573154    -0.24400
H2027       H  0.44686950  0.19432975  0.85771680     0.04800
H2028       H  0.45744469  0.18512273  0.89832861     0.08000
H2029       H  0.47561795  0.15391764  0.86843620     0.08000
H2030       H  0.59512698  0.29654693  0.83873386     0.08000
H2031       H  0.62604664  0.25634258  0.84671183     0.08000
H2032       H  0.61156119  0.28740074  0.87810436     0.04800
C2033       C  0.49459670  0.20858963  0.59515424    -0.21000
C2034       C  0.46961146  0.23776533  0.58582111    -0.07600
C2035       C  0.45742591  0.26491008  0.60803679     0.13300
C2036       C  0.47304192  0.26403205  0.63838269    -0.21100
C2037       C  0.50037448  0.23664058  0.64702885    -0.07600
C2038       C  0.50958901  0.20724753  0.62580730     0.13300
C2039       C  0.53670264  0.17588642  0.63469380    -0.24400
H2040       H  0.50366885  0.18762544  0.57794669     0.14500
H2041       H  0.46551683  0.28629993  0.65496960     0.14600
C2042       C  0.43043968  0.29649133  0.59920682    -0.24400
H2043       H  0.54098400  0.15550652  0.61497303     0.04800
H2044       H  0.52548293  0.16031773  0.65491491     0.08000
H2045       H  0.56441698  0.18755933  0.64126100     0.08000
H2046       H  0.40315721  0.28480961  0.59144085     0.08000
H2047       H  0.44231577  0.31308015  0.57985549     0.08000
H2048       H  0.42492606  0.31594031  0.61936642     0.04800
C2049       C  0.65450242  0.28282585  0.63207702    -0.21000
C2050       C  0.66521293  0.28853823  0.66373942    -0.07600
C2051       C  0.69741300  0.31016135  0.67020841     0.13300
C2052       C  0.71470954  0.32926632  0.64545286    -0.21100
C2053       C  0.70106039  0.32697023  0.61428954    -0.07600
C2054       C  0.67175768  0.30182708  0.60740929     0.13300
C2055       C  0.65571370  0.29797036  0.57464807    -0.24400
H2056       H  0.63017147  0.26594622  0.62684688     0.14500
H2057       H  0.73735232  0.34827248  0.65079990     0.14600
C2058       C  0.71194548  0.31565058  0.70332737    -0.24400
H2059       H  0.63280772  0.27728506  0.57338121     0.04800
H2060       H  0.67805465  0.28842341  0.55816495     0.08000
H2061       H  0.64375541  0.32551027  0.56715123     0.08000
H2062       H  0.71959148  0.28790913  0.71363368     0.08000
H2063       H  0.69014597  0.32997434  0.71793045     0.08000
H2064       H  0.73739502  0.33316165  0.70405901     0.04800
C2065       C  0.86286954  0.58751664  0.74787809    -0.21000
C2066       C  0.85642951  0.58934066  0.78050834    -0.07600
C2067       C  0.87758764  0.61457220  0.79905274     0.13300
C2068       C  0.90340596  0.63821441  0.78443656    -0.21100
C2069       C  0.90733568  0.63864361  0.75146696    -0.07600
C2070       C  0.88740948  0.61232266  0.73312891     0.13300
C2071       C  0.89087995  0.61153057  0.69788052    -0.24400
H2072       H  0.84604150  0.56893657  0.73344506     0.14500
H2073       H  0.91831465  0.65866369  0.79862817     0.14600
C2074       C  0.87191239  0.61751938  0.83406176    -0.24400
H2075       H  0.87361717  0.58915032  0.68694419     0.04800
H2076       H  0.92069796  0.60606326  0.69146245     0.08000
H2077       H  0.88131230  0.63898346  0.68807647     0.08000
H2078       H  0.87766722  0.58968675  0.84492309     0.08000
H2079       H  0.84252993  0.62667347  0.83912494     0.08000
H2080       H  0.89100345  0.63821757  0.84518400     0.04800
C2081       C  0.63302433  0.40232253  0.74980061    -0.21000
C2082       C  0.63891357  0.36788623  0.76536331    -0.07600
C2083       C  0.66896521  0.36482936  0.78762765     0.13300
C2084       C  0.69073162  0.39637459  0.79443203    -0.21100
C2085       C  0.68321840  0.43109857  0.78031916    -0.07600
C2086       C  0.65512339  0.43368918  0.75665826     0.13300
C2087       C  0.65018791  0.46857312  0.73704568    -0.24400
H2088       H  0.61141416  0.40463565  0.73171320     0.14500
H2089       H  0.71360689  0.39391700  0.81106301     0.14600
C2090       C  0.67935119  0.32854366  0.80399922    -0.24400
H2091       H  0.62821475  0.46518699  0.71852235     0.04800
H2092       H  0.67708635  0.47465827  0.72531227     0.08000
H2093       H  0.64188516  0.49299738  0.75188348     0.08000
H2094       H  0.68666652  0.30638541  0.78633606     0.08000
H2095       H  0.65563045  0.31957071  0.81861474     0.08000
H2096       H  0.70406559  0.33160079  0.81995469     0.04800
C2097       C  0.63330681  0.63676143  0.75568872    -0.21000
C2098       C  0.63017605  0.60174590  0.77023400    -0.07600
C2099       C  0.59383722  0.58789120  0.77575862     0.13300
C2100       C  0.56206794  0.60827023  0.76483272    -0.21100
C2101       C  0.56507708  0.64356888  0.75057495    -0.07600
C2102       C  0.60146126  0.65855585  0.74697791     0.13300
C2103       C  0.60755913  0.69778001  0.73509278    -0.24400
H2104       H  0.66103929  0.64809240  0.75255965     0.14500
H2105       H  0.53441991  0.59704734  0.76856067     0.14600
C2106       C  0.58791425  0.55196466  0.79335649    -0.24400
H2107       H  0.63790394  0.70419364  0.73372139     0.04800
H2108       H  0.59451509  0.71874954  0.75143391     0.08000
H2109       H  0.59537570  0.70133569  0.71123750     0.08000
H2110       H  0.59802641  0.55501300  0.81802682     0.08000
H2111       H  0.60315518  0.52827672  0.78176236     0.08000
H2112       H  0.55772320  0.54476011  0.79418605     0.04800
C2113       C  0.78791834  0.48185640  0.65690159    -0.21000
C2114       C  0.75654863  0.49327062  0.63893188    -0.07600
C2115       C  0.73245625  0.52253743  0.65051737     0.13300
C2116       C  0.73852580  0.53726310  0.68082465    -0.21100
C2117       C  0.76743153  0.52289043  0.70003240    -0.07600
C2118       C  0.79342261  0.49595412  0.68757544     0.13300
C2119       C  0.82670708  0.48159533  0.70659186    -0.24400
H2120       H  0.80684732  0.46019659  0.64767658     0.14500
H2121       H  0.71892680  0.55810482  0.69040468     0.14600
C2122       C  0.70006060  0.53828981  0.63126423    -0.24400
H2123       H  0.84512388  0.46237909  0.69248095     0.04800
H2124       H  0.81724743  0.46564807  0.72719896     0.08000
H2125       H  0.84383827  0.50554876  0.71474032     0.08000
H2126       H  0.67838069  0.51669727  0.62772627     0.08000
H2127       H  0.71042265  0.54769147  0.60816658     0.08000
H2128       H  0.68620143  0.56287970  0.64307541     0.04800
C2129       C  0.79111469  0.48771652  0.91180696    -0.21000
C2130       C  0.77051659  0.46929700  0.88833468    -0.07600
C2131       C  0.75264746  0.43531260  0.89557739     0.13300
C2132       C  0.75249337  0.42260992  0.92668289    -0.21100
C2133       C  0.76934278  0.44340399  0.95084008    -0.07600
C2134       C  0.79083733  0.47519257  0.94306912     0.13300
C2135       C  0.81337211  0.49629023  0.96751631    -0.24400
H2136       H  0.80518118  0.51347249  0.90615115     0.14500
H2137       H  0.73705679  0.39770307  0.93242500     0.14600
C2138       C  0.73336241  0.41250592  0.87050849    -0.24400
H2139       H  0.83119922  0.51772634  0.95664312     0.04800
H2140       H  0.83219284  0.47632322  0.98047281     0.08000
H2141       H  0.79450715  0.51137650  0.98424375     0.08000
H2142       H  0.75403751  0.40511540  0.85194652     0.08000
H2143       H  0.70927330  0.42875234  0.86032520     0.08000
H2144       H  0.72232265  0.38592964  0.87985324     0.04800
C2145       C  0.62784745  0.82662906  0.53714608    -0.21000
C2146       C  0.61754847  0.82359337  0.50520596    -0.07600
C2147       C  0.63954481  0.84463370  0.97855622     0.13300
C2148       C  0.66492099  0.87211612  0.98880678    -0.21100
C2149       C  0.67194134  0.87553012  0.52532583    -0.07600
C2150       C  0.65560069  0.85163081  0.54732798     0.13300
C2151       C  0.66880534  0.85122932  0.58114670    -0.24400
H2152       H  0.61655068  0.80697631  0.55374066     0.14500
H2153       H  0.68242110  0.88562222  0.97171761     0.14600
C2154       C  0.63599725  0.83521558  0.94401862    -0.24400
H2155       H  0.65267692  0.83126301  0.59535053     0.04800
H2156       H  0.66515156  0.87978459  0.59169380     0.08000
H2157       H  0.69895399  0.84254727  0.58252241     0.08000
H2158       H  0.60629867  0.83935916  0.93624230     0.08000
H2159       H  0.64483319  0.80546888  0.93964254     0.08000
H2160       H  0.65381349  0.85338339  0.92954844     0.04800
C2161       C  0.42146823  0.66377356  0.48829062    -0.21000
C2162       C  0.46092933  0.64794391  0.99503283    -0.07600
C2163       C  0.46201095  0.60976850  0.00483701     0.13300
C2164       C  0.42835182  0.59225903  0.01248589    -0.21100
C2165       C  0.39042386  0.61400530  0.51635444    -0.07600
C2166       C  0.38854623  0.64453066  0.49510656     0.13300
C2167       C  0.35218020  0.65776430  0.47983477    -0.24400
H2168       H  0.41988333  0.68751692  0.47274853     0.14500
H2169       H  0.42922346  0.56349684  0.02076293     0.14600
C2170       C  0.49828858  0.58723448  0.00832948    -0.24400
H2171       H  0.35625126  0.68224512  0.46432909     0.04800
H2172       H  0.33166438  0.66653380  0.49815951     0.08000
H2173       H  0.34048436  0.63484490  0.46498797     0.08000
H2174       H  0.51755977  0.60177412  0.02493692     0.08000
H2175       H  0.51181617  0.58341058  0.98506384     0.08000
H2176       H  0.49358739  0.55870550  0.01770323     0.04800
C2177       C  0.56038303  0.70707036  0.60449438    -0.21000
C2178       C  0.54845752  0.73770692  0.58657357    -0.07600
C2179       C  0.52341131  0.76504702  0.59948687     0.13300
C2180       C  0.50912131  0.75966535  0.62973304    -0.21100
C2181       C  0.51803885  0.72674689  0.64639067    -0.07600
C2182       C  0.54467433  0.70034867  0.63375898     0.13300
C2183       C  0.55565357  0.66394940  0.64981240    -0.24400
H2184       H  0.57945571  0.68636973  0.59418879     0.14500
H2185       H  0.48920566  0.78003178  0.63953642     0.14600
C2186       C  0.51158666  0.79960181  0.58133437    -0.24400
H2187       H  0.57948600  0.64914416  0.63791324     0.04800
H2188       H  0.53164663  0.64458109  0.64930758     0.08000
H2189       H  0.56434792  0.66937143  0.67444587     0.08000
H2190       H  0.49557168  0.79158977  0.55983909     0.08000
H2191       H  0.53687348  0.81520092  0.57453072     0.08000
H2192       H  0.49328664  0.81883261  0.59554126     0.04800
C2193       C  0.52071958  0.76007977  0.87455747    -0.21000
C2194       C  0.50218231  0.73928563  0.89697347    -0.07600
C2195       C  0.46773367  0.72228674  0.88930122     0.13300
C2196       C  0.45452209  0.72319974  0.85822494    -0.21100
C2197       C  0.47527659  0.74040430  0.83485430    -0.07600
C2198       C  0.50737390  0.76148363  0.84351647     0.13300
C2199       C  0.52859847  0.78555388  0.82105227    -0.24400
H2200       H  0.54680400  0.77362324  0.88087205     0.14500
H2201       H  0.42936225  0.70814048  0.85181229     0.14600
C2202       C  0.44544632  0.70229300  0.91370605    -0.24400
H2203       H  0.53092368  0.81436255  0.83117642     0.04800
H2204       H  0.51467428  0.78883696  0.79784766     0.08000
H2205       H  0.55733172  0.77342850  0.81761534     0.08000
H2206       H  0.43888533  0.72206124  0.93339706     0.08000
H2207       H  0.46167246  0.67764673  0.92280895     0.08000
H2208       H  0.41846613  0.69194818  0.90391113     0.04800
C2209       C  0.69392664  0.64750441  0.92779561    -0.21000
C2210       C  0.66771717  0.67507097  0.91771856    -0.07600
C2211       C  0.66617796  0.68476971  0.88556648     0.13300
C2212       C  0.68757391  0.66354532  0.86383482    -0.21100
C2213       C  0.70949002  0.63223180  0.87342464    -0.07600
C2214       C  0.71451452  0.62553549  0.90603749     0.13300
C2215       C  0.74060177  0.59470110  0.91811065    -0.24400
H2216       H  0.69569471  0.64064203  0.95257360     0.14500
H2217       H  0.68429947  0.66929243  0.83893941     0.14600
C2218       C  0.64133686  0.71679386  0.87398019    -0.24400
H2219       H  0.74320443  0.59564250  0.94418619     0.04800
H2220       H  0.76908379  0.59797940  0.90823153     0.08000
H2221       H  0.72994693  0.56658552  0.91159681     0.08000
H2222       H  0.64815893  0.74298145  0.88712865     0.08000
H2223       H  0.61125404  0.71050979  0.87721215     0.08000
H2224       H  0.64546731  0.72194257  0.84853213     0.04800
C2225       C  0.64418761  0.57651942  0.49495259    -0.21000
C2226       C  0.62510856  0.59854246  0.51762971    -0.07600
C2227       C  0.62572723  0.58706140  0.54937992     0.13300
C2228       C  0.64607010  0.55425412  0.55763078    -0.21100
C2229       C  0.66679585  0.53368932  0.53518088    -0.07600
C2230       C  0.66523602  0.54439412  0.50338908     0.13300
C2231       C  0.69221184  0.52210078  0.97795208    -0.24400
H2232       H  0.65179344  0.58621599  0.96962311     0.14500
H2233       H  0.64620965  0.54488881  0.58178003     0.14600
C2234       C  0.60491494  0.60890831  0.57450882    -0.24400
H2235       H  0.68941915  0.53496419  0.95432392     0.04800
H2236       H  0.67619166  0.49231478  0.47834015     0.08000
H2237       H  0.72231849  0.52244304  0.98490557     0.08000
H2238       H  0.57483095  0.61247593  0.56772257     0.08000
H2239       H  0.61777625  0.63678875  0.57772726     0.08000
H2240       H  0.60641953  0.59444231  0.59753795     0.04800
loop_ 
_geom_bond_atom_site_label_1 
_geom_bond_atom_site_label_2 
_geom_bond_distance 
_geom_bond_site_symmetry_2 
_ccdc_geom_bond_type 
O1           C16   1.264       .  A
O1           Al9   1.892       .  S
C2           O12   1.255       .  A
C2            O3   1.266       .  A
C2         C1058   1.462       .  S
O3           Al5   1.928       .  S
O4            C6   1.259       .  A
O4           Al5   1.906       .  S
Al5        O1133   1.888   1_554  S
Al5        O1135   1.943   1_554  S
Al5        O1134   1.776   1_554  S
C6         O1139   1.259   1_554  A
C6         C1106   1.475       .  S
O7           C17   1.261       .  A
O7           Al9   1.881       .  S
O8           C21   1.263       .  A
O8          Al18   1.907       .  S
Al9          O22   1.897       .  S
Al9          O19   1.906       .  S
Al9          O14   1.773       .  S
O10          C17   1.272       .  A
O10         Al18   1.952       .  S
O11          C20   1.265       .  A
O11         Al18   1.943       .  S
O12       Al1138   1.860   1_554  S
O13          C20   1.257       .  A
O13       Al1125   1.882       .  S
O14         Al18   1.786       .  S
O14       Al1125   1.773       .  S
O15          C16   1.272       .  A
O15       Al1125   1.952       .  S
C16        C1090   1.485       .  S
C17        C1042   1.480       .  S
Al18       O1132   1.859       .  S
O19        C1126   1.258       .  A
C20        C2146   1.475       .  S
C21          O22   1.259       .  A
C21        C1074   1.462       .  S
O23          C38   1.263       .  A
O23         Al31   1.884       .  S
C24          O34   1.258       .  A
C24          O25   1.272       .  A
C24         C997   1.472       .  S
O25         Al27   1.952       .  S
O26          C28   1.256       .  A
O26         Al27   1.888       .  S
Al27         O35   1.895       .  S
Al27         O37   1.959       .  S
Al27         O36   1.776       .  S
C28          O41   1.254       .  A
C28         C978   1.473       .  S
O29          C39   1.261       .  A
O29         Al31   1.889       .  S
O30          C43   1.269       .  A
O30         Al40   1.932       .  S
Al31         O44   1.907       .  S
Al31         O41   1.902       .  S
Al31         O36   1.774       .  S
O32          C39   1.271       .  A
O32         Al40   1.952       .  S
O33          C42   1.265       .  A
O33         Al40   1.946       .  S
O34         Al40   1.863       .  S
O35          C42   1.257       .  A
O36         Al40   1.786       .  S
O37          C38   1.275       .  A
C38        C1093   1.489       .  S
C39         C965   1.479       .  S
C42         C946   1.488       .  S
C43          O44   1.261       .  A
C43        C1010   1.479       .  S
O45          C60   1.260       .  A
O45         Al53   1.904       .  S
C46          O56   1.270       .  A
C46          O47   1.257       .  A
C46         C898   1.482       .  S
O47         Al49   1.863       .  S
O48          C50   1.269       .  A
O48         Al49   1.931       .  S
Al49         O57   1.934       .  S
Al49         O59   1.920       .  S
Al49         O58   1.786       .  S
C50          O63   1.268       .  A
C50         C882   1.488       .  S
O51          C61   1.258       .  A
O51         Al53   1.921       .  S
O52          C65   1.277       .  A
O52         Al62   1.967       .  S
Al53         O66   1.883       .  S
Al53         O63   1.897       .  S
Al53         O58   1.780       .  S
O54          C61   1.252       .  A
O54         Al62   1.890       .  S
O55          C64   1.257       .  A
O55         Al62   1.887       .  S
O56         Al62   1.936       .  S
O57          C64   1.262       .  A
O58         Al62   1.772       .  S
O59          C60   1.265       .  A
C60         C917   1.473       .  S
C61         C962   1.493       .  S
C64         C866   1.480       .  S
C65          O66   1.265       .  A
C65         C930   1.490       .  S
O67          C82   1.262       .  A
O67         Al75   1.912       .  S
C68          O78   1.275       .  A
C68          O69   1.253       .  A
C68        C1013   1.491       .  S
O69       Al1191   1.859       .  S
O70          C72   1.267       .  A
O70         Al71   1.932       .  S
Al71         O79   1.943       .  S
Al71         O81   1.909       .  S
Al71       O1189   1.855       .  S
Al71         O80   1.784       .  S
C72          O85   1.260       .  A
C72        C1109   1.467       .  S
O73          C83   1.262       .  A
O73         Al75   1.917       .  S
O74          C87   1.272       .  A
O74         Al84   1.959       .  S
Al75         O88   1.890       .  S
Al75         O85   1.888       .  S
Al75         O80   1.776       .  S
O76          C83   1.259       .  A
O76         Al84   1.897       .  S
O77          C86   1.257       .  A
O77         Al84   1.891       .  S
O78       Al1204   1.971       .  S
O79          C86   1.265       .  A
O80         Al84   1.779       .  S
O81          C82   1.265       .  A
C82         C994   1.481       .  S
C83         C850   1.479       .  S
Al84       O1198   1.960   1_554  S
C86         C837   1.480       .  S
C87          O88   1.262       .  A
C87         C933   1.487       .  S
O89         C104   1.261       .  A
O89         Al97   1.880       .  S
C90         O100   1.257       .  A
C90          O91   1.269       .  A
C90         C914   1.482       .  S
O91         Al93   1.934       .  S
O92          C94   1.254       .  A
O92         Al93   1.884       .  S
Al93       O1221   1.892   1_554  S
Al93       O1223   1.964   1_554  S
Al93       O1222   1.777   1_554  S
C94        O1227   1.255   1_554  A
C94         C818   1.478       .  S
O95         C105   1.262       .  A
O95         Al97   1.884       .  S
O96         C109   1.268       .  A
O96        Al106   1.923       .  S
Al97        O110   1.890       .  S
Al97        O107   1.905       .  S
Al97        O102   1.778       .  S
O98         C105   1.271       .  A
O98        Al106   1.951       .  S
O99         C108   1.268       .  A
O99        Al106   1.960       .  S
O100      Al1226   1.866   1_554  S
O101        C108   1.258       .  A
O101      Al1213   1.894       .  S
O102       Al106   1.788       .  S
O102      Al1213   1.776       .  S
O103        C104   1.275       .  A
O103      Al1213   1.962       .  S
C104        C802   1.488       .  S
C105        C853   1.493       .  S
Al106      O1220   1.863       .  S
O107       C1214   1.255       .  A
C108       C1909   1.494       .  S
C109        O110   1.259       .  A
C109        C901   1.473       .  S
O111        C126   1.263       .  A
O111       Al119   1.886       .  S
C112        O122   1.255       .  A
C112        O113   1.270       .  A
C112        C757   1.475       .  S
O113       Al115   1.940       .  S
O114        C116   1.253       .  A
O114       Al115   1.885       .  S
Al115       O123   1.884       .  S
Al115       O125   1.959       .  S
Al115       O124   1.776       .  S
C116        O129   1.255       .  A
C116        C885   1.474       .  S
O117        C127   1.264       .  A
O117       Al119   1.890       .  S
O118        C131   1.267       .  A
O118       Al128   1.923       .  S
Al119       O132   1.897       .  S
Al119       O129   1.907       .  S
Al119       O124   1.780       .  S
O120        C127   1.270       .  A
O120       Al128   1.942       .  S
O121        C130   1.266       .  A
O121       Al128   1.954       .  S
O122       Al128   1.861       .  S
O123        C130   1.256       .  A
O124       Al128   1.789       .  S
O125        C126   1.275       .  A
C126        C805   1.486       .  S
C127        C741   1.493       .  S
C130        C725   1.489       .  S
C131        O132   1.259       .  A
C131        C773   1.476       .  S
O133        C148   1.261       .  A
O133       Al141   1.897       .  S
C134        O144   1.274       .  A
C134        O135   1.253       .  A
C134       C1077   1.477       .  S
O135       Al137   1.848       .  S
O136        C138   1.265       .  A
O136       Al137   1.924       .  S
Al137       O145   1.943       .  S
Al137       O147   1.914       .  S
Al137       O146   1.787       .  S
C138        O151   1.264       .  A
C138        C981   1.485       .  S
O139        C149   1.255       .  A
O139       Al141   1.907       .  S
O140        C153   1.274       .  A
O140       Al150   1.955       .  S
Al141       O154   1.872       .  S
Al141       O151   1.892       .  S
Al141       O146   1.775       .  S
O142        C149   1.253       .  A
O142       Al150   1.890       .  S
O143        C152   1.255       .  A
O143       Al150   1.883       .  S
O144       Al150   1.946       .  S
O145        C152   1.262       .  A
O146       Al150   1.774       .  S
O147        C148   1.268       .  A
C148       C1061   1.475       .  S
C149        C738   1.469       .  S
C152        C690   1.484       .  S
C153        O154   1.261       .  A
C153        C706   1.482       .  S
O155        C170   1.263       .  A
O155       Al163   1.910       .  S
C156        O166   1.273       .  A
C156        O157   1.258       .  A
C156        C770   1.477       .  S
O157      Al1279   1.864       .  S
O158        C160   1.267       .  A
O158       Al159   1.932       .  S
Al159       O167   1.932       .  S
Al159       O169   1.919       .  S
Al159      O1277   1.864   1_554  S
Al159       O168   1.784       .  S
C160        O173   1.262       .  A
C160        C821   1.479       .  S
O161        C171   1.259       .  A
O161       Al163   1.912       .  S
O162        C175   1.273       .  A
O162       Al172   1.958       .  S
Al163       O176   1.872       .  S
Al163       O173   1.886       .  S
Al163       O168   1.772       .  S
O164        C171   1.257       .  A
O164       Al172   1.898       .  S
O165        C174   1.256       .  A
O165       Al172   1.892       .  S
O166      Al1292   1.955       .  S
O167        C174   1.261       .  A
O168       Al172   1.777       .  S
O169        C170   1.267       .  A
C170        C754   1.481       .  S
C171       C1045   1.481       .  S
Al172      O1286   1.961   1_554  S
C174        C677   1.477       .  S
C175        O176   1.259       .  A
C175        C709   1.478       .  S
O177        C192   1.265       .  A
O177       Al185   1.890       .  S
C178        O188   1.251       .  A
C178        O179   1.270       .  A
C178        C610   1.480       .  S
O179       Al181   1.943       .  S
O180        C182   1.251       .  A
O180       Al181   1.881       .  S
Al181       O189   1.889       .  S
Al181       O191   1.975       .  S
Al181       O190   1.772       .  S
C182        O195   1.259       .  A
C182        C661   1.482       .  S
O183        C193   1.265   1_455  A
O183       Al185   1.894       .  S
O184        C197   1.266       .  A
O184       Al194   1.919       .  S
Al185       O198   1.904       .  S
Al185       O195   1.925       .  S
Al185       O190   1.779       .  S
O186        C193   1.272       .  A
O186       Al194   1.948   1_655  S
O187        C196   1.269       .  A
O187       Al194   1.964       .  S
O188       Al194   1.854       .  S
O189        C196   1.257       .  A
O190       Al194   1.787       .  S
O191        C192   1.278       .  A
C192        C642   1.493       .  S
C193        C597   1.498       .  S
C196        C722   1.494       .  S
C197        O198   1.260       .  A
C197        C626   1.475   1_455  S
O199        C214   1.261       .  A
O199       Al207   1.882       .  S
C200        O210   1.250       .  A
C200        O201   1.273       .  A
C200        C562   1.475       .  S
O201      Al1323   1.953       .  S
O202        C204   1.255       .  A
O202       Al203   1.889       .  S
Al203       O211   1.887       .  S
Al203       O213   1.979       .  S
Al203      O1321   1.967   1_554  S
Al203       O212   1.772       .  S
C204        O217   1.259       .  A
C204        C549   1.480       .  S
O205        C215   1.262       .  A
O205       Al207   1.887   1_565  S
O206        C219   1.263   1_545  A
O206       Al216   1.904       .  S
Al207       O220   1.901       .  S
Al207       O217   1.917       .  S
Al207       O212   1.773       .  S
O208        C215   1.272       .  A
O208       Al216   1.952   1_565  S
O209        C218   1.267       .  A
O209       Al216   1.959       .  S
O210      Al1336   1.842       .  S
O211        C218   1.257       .  A
O212       Al216   1.781       .  S
O213        C214   1.279       .  A
C214        C645   1.495       .  S
C215        C533   1.492       .  S
Al216      O1330   1.840   1_554  S
C218        C786   1.489       .  S
C219        O220   1.261   1_565  A
C219        C581   1.458       .  S
O221        C236   1.264       .  A
O221       Al229   1.914       .  S
C222        O232   1.274       .  A
C222        O223   1.258       .  A
C222        C501   1.481       .  S
O223      Al1345   1.865   1_554  S
O224       C1346   1.269       .  A
O224      Al1345   1.937   1_655  S
Al225       O233   1.934       .  S
Al225       O235   1.911       .  S
Al225      O1343   1.873       .  S
Al225      O1344   1.933   1_455  S
Al225       O234   1.782       .  S
C226        O239   1.260   1_655  A
C226       O1344   1.268       .  A
C226        C466   1.466       .  S
O227       C1357   1.262       .  A
O227       Al229   1.919       .  S
O228        C241   1.275       .  A
O228      Al1358   1.967       .  S
Al229       O242   1.877       .  S
Al229       O239   1.882       .  S
Al229       O234   1.771       .  S
O230        C237   1.259       .  A
O230       Al238   1.898   1_554  S
O231       C1360   1.256       .  A
O231       Al238   1.887       .  S
O232       Al238   1.962   1_554  S
O233        C240   1.262       .  A
O234      Al1358   1.773       .  S
O235        C236   1.265       .  A
C236        C517   1.477       .  S
C237       O1347   1.263   1_554  A
C237        C530   1.487       .  S
Al238      O1348   1.958       .  S
Al238      O1354   1.773       .  S
C240       O1351   1.257       .  A
C240       C1794   1.473       .  S
C241        O242   1.259       .  A
C241        C482   1.485       .  S
O243        C258   1.262       .  A
O243       Al251   1.910       .  S
C244        O254   1.272       .  A
C244        O245   1.249       .  A
C244        C578   1.477       .  S
O245       Al247   1.838       .  S
O246        C248   1.273   1_545  A
O246       Al247   1.946   1_545  S
Al247       O255   1.956       .  S
Al247       O257   1.905       .  S
Al247       O256   1.778       .  S
C248        O261   1.264       .  A
C248        C658   1.486   1_565  S
O249        C259   1.258       .  A
O249       Al251   1.917       .  S
O250        C263   1.279       .  A
O250       Al260   1.973       .  S
Al251       O264   1.875       .  S
Al251       O261   1.894       .  S
Al251       O256   1.774       .  S
O252        C259   1.253       .  A
O252       Al260   1.893       .  S
O253        C262   1.257       .  A
O253       Al260   1.888       .  S
O254       Al260   1.945       .  S
O255        C262   1.267       .  A
O256       Al260   1.770       .  S
O257        C258   1.263       .  A
C258        C565   1.465       .  S
C259        C453   1.475       .  S
C262        C693   1.488       .  S
C263        O264   1.264       .  A
C263        C485   1.487       .  S
O265        C280   1.263       .  A
O265       Al273   1.889       .  S
C266        O276   1.256       .  A
C266        O267   1.269       .  A
C266        C514   1.471       .  S
O267       Al269   1.945       .  S
O268        C270   1.256       .  A
O268       Al269   1.883       .  S
Al269       O277   1.889       .  S
Al269       O279   1.950       .  S
Al269       O278   1.777       .  S
C270        O283   1.258       .  A
C270        C437   1.469       .  S
O271        C281   1.258       .  A
O271       Al273   1.876   1_455  S
O272        C285   1.266   1_655  A
O272       Al282   1.921       .  S
Al273       O286   1.897       .  S
Al273       O283   1.908       .  S
Al273       O278   1.778       .  S
O274        C281   1.270       .  A
O274       Al282   1.944   1_455  S
O275        C284   1.267       .  A
O275       Al282   1.951       .  S
O276       Al282   1.859       .  S
O277        C284   1.257       .  A
O278       Al282   1.788       .  S
O279        C280   1.271       .  A
C280        C418   1.491       .  S
C281        C450   1.470       .  S
C284        C949   1.485       .  S
C285        O286   1.260   1_455  A
C285        C498   1.471       .  S
O287        C302   1.263       .  A
O287       Al295   1.893       .  S
C288        O298   1.255       .  A
C288        O289   1.268       .  A
C288        C386   1.475       .  S
O289      Al1411   1.940       .  S
O290        C292   1.255       .  A
O290       Al291   1.889       .  S
Al291       O299   1.883       .  S
Al291       O301   1.949       .  S
Al291      O1409   1.928   1_554  S
Al291       O300   1.772       .  S
C292        O305   1.261       .  A
C292        C469   1.483       .  S
O293        C303   1.259   1_565  A
O293       Al295   1.875       .  S
O294        C307   1.263       .  A
O294       Al304   1.907       .  S
Al295       O308   1.895       .  S
Al295       O305   1.912       .  S
Al295       O300   1.772       .  S
O296        C303   1.271       .  A
O296       Al304   1.949   1_545  S
O297        C306   1.267       .  A
O297       Al304   1.949       .  S
O298      Al1424   1.865       .  S
O299        C306   1.258       .  A
O300       Al304   1.785       .  S
O301        C302   1.270       .  A
C302        C421   1.485       .  S
C303        C370   1.479       .  S
Al304      O1418   1.863   1_554  S
C306       C1029   1.477       .  S
C307        O308   1.260       .  A
C307        C402   1.462       .  S
O309        C324   1.261       .  A
O309       Al317   1.909       .  S
C310        O320   1.272       .  A
C310        O311   1.256       .  A
C310        C629   1.475       .  S
O311      Al1433   1.859   1_554  S
O312       C1434   1.271       .  A
O312      Al1433   1.942   1_455  S
Al313       O321   1.941       .  S
Al313       O323   1.921       .  S
Al313      O1431   1.860       .  S
Al313      O1432   1.940   1_655  S
Al313       O322   1.780       .  S
C314        O327   1.261   1_455  A
C314       O1432   1.272       .  A
C314        C546   1.480       .  S
O315       C1445   1.259       .  A
O315       Al317   1.912       .  S
O316        C329   1.274       .  A
O316      Al1446   1.959       .  S
Al317       O330   1.869       .  S
Al317       O327   1.880       .  S
Al317       O322   1.773       .  S
O318        C325   1.258       .  A
O318       Al326   1.899   1_554  S
O319       C1448   1.257       .  A
O319       Al326   1.890       .  S
O320       Al326   1.955   1_554  S
O321        C328   1.264       .  A
O322      Al1446   1.775       .  S
O323        C324   1.266       .  A
C324        C613   1.476   1_655  S
C325       O1435   1.261   1_554  A
C325        C373   1.486       .  S
Al326      O1436   1.959       .  S
Al326      O1442   1.776       .  S
C328       O1439   1.257       .  A
C328       C1954   1.481       .  S
C329        O330   1.260       .  A
C329        C354   1.477       .  S
O331        C346   1.262   1_545  A
O331       Al339   1.909       .  S
C332        O342   1.270       .  A
C332        O333   1.259       .  A
C332        C405   1.473       .  S
O333       Al335   1.858       .  S
O334        C336   1.263       .  A
O334       Al335   1.916   1_565  S
Al335       O343   1.932       .  S
Al335       O345   1.918       .  S
Al335       O344   1.788       .  S
C336        O349   1.264       .  A
C336        C434   1.487       .  S
O337        C347   1.257       .  A
O337       Al339   1.912       .  S
O338        C351   1.270       .  A
O338       Al348   1.936       .  S
Al339       O352   1.881       .  S
Al339       O349   1.901   1_545  S
Al339       O344   1.778       .  S
O340        C347   1.254       .  A
O340       Al348   1.889       .  S
O341        C350   1.255       .  A
O341       Al348   1.886       .  S
O342       Al348   1.934       .  S
O343        C350   1.259       .  A
O344       Al348   1.778       .  S
O345        C346   1.268   1_545  A
C346        C389   1.480       .  S
C347        C594   1.475       .  S
C350        C869   1.478       .  S
C351        O352   1.262       .  A
C351        C357   1.476       .  S
C353        C354   1.403       .  A
C353        C358   1.403       .  A
C353        H360   1.085       .  S
C354        C355   1.417       .  A
C355        C356   1.403       .  A
C355        C362   1.510       .  S
C356        C357   1.402       .  A
C356        H361   1.085       .  S
C357        C358   1.416       .  A
C358        C359   1.508       .  S
C359        H363   1.111       .  S
C359        H364   1.109       .  S
C359        H365   1.110       .  S
C362        H366   1.110       .  S
C362        H367   1.109       .  S
C362        H368   1.111       .  S
C369        C370   1.402       .  A
C369        C374   1.406       .  A
C369        H376   1.085       .  S
C370        C371   1.415       .  A
C371        C372   1.401       .  A
C371        C378   1.510   1_544  S
C372        C373   1.405       .  A
C372        H377   1.084   1_554  S
C373        C374   1.419       .  A
C374        C375   1.508       .  S
C375        H379   1.111       .  S
C375        H380   1.110       .  S
C375       H1501   1.110       .  S
C378        H382   1.111       .  S
C378        H383   1.109   1_556  S
C378        H384   1.111   1_565  S
H381       C1495   1.111       .  S
C385        C386   1.397       .  A
C385        C390   1.401       .  A
C385        H392   1.083       .  S
C386        C387   1.416       .  A
C387        C388   1.406       .  A
C387        C394   1.507       .  S
C388        C389   1.402       .  A
C388        H393   1.084   1_565  S
C389        C390   1.421       .  A
C390        C391   1.510       .  S
C391        H395   1.111       .  S
C391        H396   1.109       .  S
C391        H397   1.106       .  S
C394        H398   1.109   1_565  S
C394        H399   1.110       .  S
C394        H400   1.111   1_565  S
C401        C402   1.406   1_545  A
C401        C406   1.401       .  A
C401        H408   1.085       .  S
C402        C403   1.404       .  A
C403        C404   1.399       .  A
C403        C410   1.507       .  S
C404        C405   1.408   1_565  A
C404        H409   1.085       .  S
C405        C406   1.410       .  A
C406        C407   1.507       .  S
C407        H411   1.111       .  S
C407        H412   1.110       .  S
C407        H413   1.111       .  S
C410        H414   1.111       .  S
C410        H415   1.110       .  S
C410        H416   1.111       .  S
C417        C418   1.405       .  A
C417        C422   1.406       .  A
C417        H424   1.085       .  S
C418        C419   1.419       .  A
C419        C420   1.407       .  A
C419        C426   1.505       .  S
C420        C421   1.403       .  A
C420        H425   1.085       .  S
C421        C422   1.416       .  A
C422        C423   1.507       .  S
C423        H427   1.111       .  S
C423        H428   1.107       .  S
C423        H429   1.110       .  S
C426        H430   1.106       .  S
C426        H431   1.110       .  S
C426        H432   1.111       .  S
C433        C434   1.410       .  A
C433        C438   1.404       .  A
C433        H440   1.084       .  S
C434        C435   1.424       .  A
C435        C436   1.398       .  A
C435        C442   1.511       .  S
C436        C437   1.397       .  A
C436        H441   1.085       .  S
C437        C438   1.410       .  A
C438        C439   1.508       .  S
C439        H443   1.111       .  S
C439        H444   1.110       .  S
C439        H445   1.111       .  S
C442        H446   1.110       .  S
C442        H447   1.107       .  S
C442        H448   1.111       .  S
C449        C450   1.403       .  A
C449        C454   1.404       .  A
C449        H456   1.084       .  S
C450        C451   1.410       .  A
C451        C452   1.402       .  A
C451        C458   1.507       .  S
C452        C453   1.405       .  A
C452        H457   1.084       .  S
C453        C454   1.413       .  A
C454        C455   1.507       .  S
C455        H459   1.111       .  S
C455        H460   1.110       .  S
C455        H461   1.108       .  S
C458        H462   1.110       .  S
C458        H463   1.110       .  S
C458        H464   1.111       .  S
C465        C470   1.401       .  A
C465       C1586   1.400       .  A
C465       H1592   1.085       .  S
C466       C1585   1.399       .  A
C466       C1587   1.408       .  A
C467        C468   1.401       .  A
C467       C1586   1.412   1_554  A
C467       C1594   1.509   1_655  S
C468        C469   1.407       .  A
C468        H473   1.084       .  S
C469        C470   1.419   1_554  A
C470        C471   1.509       .  S
C471        H475   1.111       .  S
C471        H477   1.110       .  S
C471       H1596   1.110       .  S
H472       C1585   1.084       .  S
C474       C1587   1.509   1_455  S
C474        H478   1.110       .  S
C474       H1599   1.111       .  S
C474       H1600   1.111   1_455  S
H476       C1591   1.110       .  S
H479       C1594   1.111       .  S
H480       C1594   1.111   1_655  S
C481        C482   1.402       .  A
C481        C486   1.406       .  A
C481        H488   1.085       .  S
C482        C483   1.418       .  A
C483        C484   1.409       .  A
C483        C490   1.508       .  S
C484        C485   1.404       .  A
C484        H489   1.084       .  S
C485        C486   1.419       .  A
C486        C487   1.508       .  S
C487        H491   1.109       .  S
C487        H492   1.110       .  S
C487        H493   1.111       .  S
C490        H494   1.109       .  S
C490        H495   1.110       .  S
C490        H496   1.111       .  S
C497        C498   1.395       .  A
C497        C502   1.404       .  A
C497        H504   1.085   1_455  S
C498        C499   1.416       .  A
C499        C500   1.404       .  A
C499        C506   1.507       .  S
C500        C501   1.399       .  A
C500        H505   1.084       .  S
C501        C502   1.423       .  A
C502        C503   1.509   1_455  S
C503        H507   1.111       .  S
C503        H508   1.111   1_655  S
C503        H509   1.109       .  S
C506        H510   1.110       .  S
C506        H511   1.107       .  S
C506        H512   1.111       .  S
C513        C514   1.406       .  A
C513        C518   1.405   1_655  A
C513        H520   1.084   1_655  S
C514        C515   1.408       .  A
C515        C516   1.401       .  A
C515        C522   1.507       .  S
C516        C517   1.407   1_655  A
C516        H521   1.085       .  S
C517        C518   1.411       .  A
C518        C519   1.506       .  S
C519        H523   1.111       .  S
C519        H524   1.110       .  S
C519        H525   1.110       .  S
C522        H526   1.110       .  S
C522        H527   1.110       .  S
C522        H528   1.111       .  S
C529       C1650   1.402       .  A
C529       C1654   1.405       .  A
C529        H536   1.085       .  S
C530        C531   1.417       .  A
C530       C1649   1.403       .  A
C531        C532   1.406       .  A
C531        C538   1.508       .  S
C532        C533   1.405       .  A
C532        H537   1.083       .  S
C533        C534   1.420       .  A
C534       C1649   1.406       .  A
C534       C1655   1.509       .  S
C535       C1654   1.510       .  S
C535        H539   1.111       .  S
C535        H540   1.111       .  S
C535        H541   1.110       .  S
C538        H542   1.111       .  S
C538        H543   1.110       .  S
C538        H544   1.111       .  S
C545        C550   1.401   1_556  A
C545       C1666   1.404       .  A
C545        H552   1.082       .  S
C546        C547   1.418       .  A
C546       C1665   1.402       .  A
C547        C548   1.403       .  A
C547        C554   1.509       .  S
C548       C1669   1.403       .  A
C548        H553   1.083       .  S
C549        C550   1.415       .  A
C549       C1668   1.403       .  A
C550        C551   1.509   1_554  S
C551        H555   1.111       .  S
C551        H556   1.110       .  S
C551        H557   1.110   1_556  S
C554        H558   1.109       .  S
C554        H559   1.111       .  S
C554        H560   1.111       .  S
C561        C562   1.397       .  A
C561        C566   1.399       .  A
C561        H568   1.084       .  S
C562        C563   1.426   1_545  A
C563        C564   1.401       .  A
C563        C570   1.511       .  S
C564        C565   1.393       .  A
C564        H569   1.084       .  S
C565        C566   1.414   1_565  A
C566        C567   1.504       .  S
C567        H571   1.111       .  S
C567        H572   1.109       .  S
C567        H573   1.109       .  S
C570        H574   1.109       .  S
C570        H575   1.109       .  S
C570        H576   1.111       .  S
C577        C578   1.398       .  A
C577        C582   1.398       .  A
C577        H584   1.084       .  S
C578        C579   1.428       .  A
C579        C580   1.399       .  A
C579        C586   1.511   1_565  S
C580        C581   1.391       .  A
C580        H585   1.085   1_565  S
C581        C582   1.412       .  A
C582        C583   1.504       .  S
C583        H587   1.111       .  S
C583        H588   1.110       .  S
C583        H589   1.108       .  S
C586        H590   1.110   1_545  S
C586        H591   1.109       .  S
C586        H592   1.111       .  S
C593        C594   1.400       .  A
C593        C598   1.405       .  A
C593        H600   1.084       .  S
C594        C595   1.407       .  A
C595        C596   1.407       .  A
C595        C602   1.507       .  S
C596        C597   1.413       .  A
C596        H601   1.083       .  S
C597        C598   1.423       .  A
C598        C599   1.509       .  S
C599        H603   1.111       .  S
C599        H604   1.107       .  S
C599        H605   1.110       .  S
C602        H606   1.110       .  S
C602        H607   1.110       .  S
C602        H608   1.111       .  S
C609        C610   1.398       .  A
C609        C614   1.402       .  A
C609        H616   1.084       .  S
C610        C611   1.423       .  A
C611        C612   1.405       .  A
C611        C618   1.509   1_455  S
C612        C613   1.397       .  A
C612        H617   1.084   1_455  S
C613        C614   1.418       .  A
C614        C615   1.506       .  S
C615        H619   1.111       .  S
C615        H620   1.109       .  S
C615        H621   1.107       .  S
C618        H622   1.108       .  S
C618        H623   1.109   1_655  S
C618        H624   1.111       .  S
C625        C626   1.397   1_455  A
C625        C630   1.405   1_455  A
C625        H632   1.084       .  S
C626        C627   1.419       .  A
C627        C628   1.401       .  A
C627        C634   1.507       .  S
C628        C629   1.396       .  A
C628        H633   1.084       .  S
C629        C630   1.421       .  A
C630        C631   1.509   1_655  S
C631        H635   1.111       .  S
C631        H636   1.110   1_455  S
C631        H637   1.108       .  S
C634        H638   1.107       .  S
C634        H639   1.108       .  S
C634        H640   1.111       .  S
C641        C642   1.404       .  A
C641        C646   1.411       .  A
C641        H648   1.084       .  S
C642        C643   1.418       .  A
C643        C644   1.409       .  A
C643        C650   1.507       .  S
C644        C645   1.405       .  A
C644        H649   1.084       .  S
C645        C646   1.422       .  A
C646        C647   1.509       .  S
C647        H651   1.111       .  S
C647        H652   1.110       .  S
C647        H653   1.108       .  S
C650        H654   1.109       .  S
C650        H655   1.110       .  S
C650        H656   1.111       .  S
C657        C658   1.402       .  A
C657        C662   1.400       .  A
C657        H664   1.082       .  S
C658        C659   1.418       .  A
C659        C660   1.406       .  A
C659        C666   1.507   1_545  S
C660        C661   1.403       .  A
C660        H665   1.085       .  S
C661        C662   1.418       .  A
C662        C663   1.510       .  S
C663        H667   1.111       .  S
C663        H668   1.110       .  S
C663        H669   1.110       .  S
C666        H670   1.109       .  S
C666        H671   1.110       .  S
C666        H672   1.111   1_565  S
C673        C674   1.407   1_554  A
C673        C678   1.407       .  A
C673        H680   1.084       .  S
C674       C1360   1.476       .  S
C674       C1795   1.408       .  A
C675       C1794   1.407       .  A
C675       C1796   1.404       .  A
C675        C682   1.506       .  S
C676        C677   1.407   1_556  A
C676       C1795   1.406       .  A
C676       H1801   1.085       .  S
C677        C678   1.408       .  A
C678        C679   1.505       .  S
C679        H683   1.111       .  S
C679        H684   1.110       .  S
C679        H685   1.110       .  S
H681       C1796   1.083       .  S
C682        H686   1.110       .  S
C682        H687   1.110       .  S
C682        H688   1.111       .  S
C689        C690   1.395       .  A
C689        C694   1.405       .  A
C689        H696   1.085       .  S
C690        C691   1.421       .  A
C691        C692   1.408       .  A
C691        C698   1.501       .  S
C692        C693   1.398       .  A
C692        H697   1.084       .  S
C693        C694   1.421       .  A
C694        C695   1.499       .  S
C695        H699   1.111       .  S
C695        H700   1.109       .  S
C695        H701   1.105       .  S
C698        H702   1.102       .  S
C698        H703   1.110       .  S
C698        H704   1.110       .  S
C705        C706   1.403       .  A
C705        C710   1.407       .  A
C705        H712   1.084       .  S
C706        C707   1.419       .  A
C707        C708   1.404       .  A
C707        C714   1.509       .  S
C708        C709   1.401       .  A
C708        H713   1.085       .  S
C709        C710   1.416       .  A
C710        C711   1.508       .  S
C711        H715   1.111       .  S
C711        H716   1.109       .  S
C711        H717   1.110       .  S
C714        H718   1.109       .  S
C714        H719   1.110       .  S
C714        H720   1.111       .  S
C721        C722   1.402       .  A
C721        C726   1.414       .  A
C721        H728   1.084       .  S
C722        C723   1.421       .  A
C723        C724   1.406       .  A
C723        C730   1.500       .  S
C724        C725   1.396       .  A
C724        H729   1.085       .  S
C725        C726   1.420       .  A
C726        C727   1.503       .  S
C727        H731   1.111       .  S
C727        H732   1.105       .  S
C727        H733   1.110       .  S
C730        H734   1.106       .  S
C730        H735   1.107       .  S
C730        H736   1.111       .  S
C737        C738   1.398       .  A
C737        C742   1.403       .  A
C737        H744   1.085       .  S
C738        C739   1.406       .  A
C739        C740   1.406       .  A
C739        C746   1.506       .  S
C740        C741   1.413       .  A
C740        H745   1.084       .  S
C741        C742   1.422       .  A
C742        C743   1.509       .  S
C743        H747   1.111       .  S
C743        H748   1.110       .  S
C743        H749   1.111       .  S
C746        H750   1.111       .  S
C746        H751   1.110       .  S
C746        H752   1.111       .  S
C753        C754   1.408       .  A
C753        C758   1.401       .  A
C753        H760   1.084       .  S
C754        C755   1.411       .  A
C755        C756   1.407       .  A
C755        C762   1.506       .  S
C756        C757   1.407       .  A
C756        H761   1.084       .  S
C757        C758   1.408       .  A
C758        C759   1.508       .  S
C759        H763   1.111       .  S
C759        H764   1.110       .  S
C759        H765   1.111       .  S
C762        H766   1.110       .  S
C762        H767   1.110       .  S
C762        H768   1.111       .  S
C769        C770   1.398       .  A
C769        C774   1.404       .  A
C769        H776   1.085       .  S
C770        C771   1.420       .  A
C771        C772   1.405       .  A
C771        C778   1.508       .  S
C772        C773   1.398       .  A
C772        H777   1.084       .  S
C773        C774   1.420       .  A
C774        C775   1.510       .  S
C775        H779   1.111       .  S
C775        H780   1.110       .  S
C775        H781   1.109       .  S
C778        H782   1.110       .  S
C778        H783   1.108       .  S
C778        H784   1.111       .  S
C785        C786   1.398       .  A
C785        C790   1.408       .  A
C785        H792   1.084       .  S
C786        C787   1.422   1_554  A
C787        C788   1.409       .  A
C787        C794   1.501       .  S
C788        C789   1.398   1_556  A
C788       H1913   1.084       .  S
C789       C1228   1.489   1_554  S
C789        C790   1.420       .  A
C790        C791   1.501       .  S
C791        H795   1.111       .  S
C791        H796   1.105       .  S
C791       H1917   1.110       .  S
H793       C1908   1.084       .  S
C794        H798   1.110       .  S
C794        H800   1.110       .  S
C794       H1919   1.101       .  S
H797       C1911   1.107       .  S
H799       C1914   1.100       .  S
C801        C802   1.404       .  A
C801        C806   1.407       .  A
C801        H808   1.084       .  S
C802        C803   1.418       .  A
C803        C804   1.408       .  A
C803        C810   1.508       .  S
C804        C805   1.404       .  A
C804        H809   1.084       .  S
C805        C806   1.417       .  A
C806        C807   1.507       .  S
C807        H811   1.110       .  S
C807        H812   1.109       .  S
C807        H813   1.110       .  S
C810        H814   1.110       .  S
C810        H815   1.109       .  S
C810        H816   1.111       .  S
C817        C818   1.404       .  A
C817        C822   1.400       .  A
C817        H824   1.084       .  S
C818        C819   1.415       .  A
C819        C820   1.402       .  A
C819       C1946   1.508   1_554  S
C820        C821   1.405       .  A
C820        H825   1.084       .  S
C821        C822   1.416       .  A
C822        C823   1.509       .  S
C823        H827   1.111       .  S
C823        H828   1.110       .  S
C823        H829   1.109       .  S
C826       C1939   1.508       .  S
C826        H830   1.109       .  S
C826        H832   1.111       .  S
C826       H1951   1.110       .  S
H831       C1946   1.110       .  S
C833        C834   1.408       .  A
C833        C838   1.408       .  A
C833        H840   1.084       .  S
C834       C1448   1.480   1_554  S
C834       C1955   1.408   1_554  A
C835        C836   1.410       .  A
C835       C1954   1.408       .  A
C835        C842   1.505       .  S
C836       C1957   1.408       .  A
C836        H841   1.084       .  S
C837        C838   1.408       .  A
C837       C1956   1.407   1_554  A
C838        C839   1.505       .  S
C839        H843   1.111       .  S
C839        H844   1.110       .  S
C839        H845   1.110       .  S
C842        H846   1.110       .  S
C842        H847   1.110       .  S
C842        H848   1.111       .  S
C849        C850   1.404       .  A
C849        C854   1.407   1_554  A
C849        H856   1.084   1_554  S
C850       C1971   1.412       .  A
C851        C852   1.403       .  A
C851       C1970   1.409       .  A
C851        C858   1.508       .  S
C852        C853   1.410       .  A
C852        H857   1.083       .  S
C853       C1974   1.420       .  A
C854       C1973   1.421       .  A
C854        C855   1.508       .  S
C855        H859   1.111       .  S
C855        H860   1.108       .  S
C855        H861   1.110       .  S
C858        H862   1.111       .  S
C858        H863   1.109       .  S
C858        H864   1.111       .  S
C865        C866   1.398       .  A
C865        C870   1.408       .  A
C865        H872   1.084       .  S
C866        C867   1.418       .  A
C867        C868   1.402       .  A
C867        C874   1.500       .  S
C868        C869   1.394       .  A
C868        H873   1.085       .  S
C869        C870   1.419       .  A
C870        C871   1.501       .  S
C871        H875   1.111       .  S
C871        H876   1.110       .  S
C871        H877   1.103       .  S
C874        H878   1.109       .  S
C874        H879   1.105       .  S
C874        H880   1.111       .  S
C881        C882   1.408       .  A
C881        C886   1.404       .  A
C881        H888   1.084       .  S
C882        C883   1.422       .  A
C883        C884   1.401       .  A
C883        C890   1.510       .  S
C884        C885   1.400       .  A
C884        H889   1.085       .  S
C885        C886   1.411       .  A
C886        C887   1.508       .  S
C887        H891   1.111       .  S
C887        H892   1.109       .  S
C887        H893   1.111       .  S
C890        H894   1.110       .  S
C890        H895   1.109       .  S
C890        H896   1.111       .  S
C897        C898   1.410       .  A
C897        C902   1.403       .  A
C897        H904   1.085       .  S
C898        C899   1.410       .  A
C899        C900   1.403       .  A
C899        C906   1.507       .  S
C900        C901   1.408       .  A
C900        H905   1.084       .  S
C901        C902   1.409       .  A
C902        C903   1.507       .  S
C903        H907   1.110       .  S
C903        H908   1.106       .  S
C903        H909   1.110       .  S
C906        H910   1.111       .  S
C906        H911   1.110       .  S
C906        H912   1.111       .  S
C913        C914   1.410       .  A
C913        C918   1.404       .  A
C913        H920   1.085       .  S
C914        C915   1.412       .  A
C915        C916   1.403       .  A
C915        C922   1.507       .  S
C916        C917   1.406       .  A
C916        H921   1.084       .  S
C917        C918   1.406       .  A
C918        C919   1.506       .  S
C919        H923   1.111       .  S
C919        H924   1.110       .  S
C919        H925   1.111       .  S
C922        H926   1.110       .  S
C922        H927   1.110       .  S
C922        H928   1.111       .  S
C929        C930   1.406       .  A
C929        C934   1.407       .  A
C929        H936   1.085       .  S
C930        C931   1.417       .  A
C931        C932   1.409       .  A
C931        C938   1.506       .  S
C932        C933   1.405       .  A
C932        H937   1.085       .  S
C933        C934   1.415       .  A
C934        C935   1.506       .  S
C935        H939   1.111       .  S
C935        H940   1.110       .  S
C935        H941   1.108       .  S
C938        H942   1.110       .  S
C938        H943   1.107       .  S
C938        H944   1.111       .  S
C945        C946   1.408       .  A
C945        C950   1.409       .  A
C945        H952   1.081       .  S
C946        C947   1.410       .  A
C947        C948   1.411       .  A
C947        C954   1.505       .  S
C948        C949   1.409       .  A
C948        H953   1.084       .  S
C949        C950   1.409       .  A
C950        C951   1.506       .  S
C951        H955   1.111       .  S
C951        H956   1.110       .  S
C951        H957   1.110       .  S
C954        H958   1.110       .  S
C954        H959   1.110       .  S
C954        H960   1.111       .  S
C961        C962   1.409       .  A
C961        C966   1.406       .  A
C961        H968   1.085       .  S
C962        C963   1.423       .  A
C963        C964   1.402       .  A
C963        C970   1.509       .  S
C964        C965   1.396       .  A
C964        H969   1.082       .  S
C965        C966   1.412       .  A
C966        C967   1.508       .  S
C967        H971   1.111       .  S
C967        H972   1.111       .  S
C967        H973   1.103       .  S
C970        H974   1.110       .  S
C970        H975   1.109       .  S
C970        H976   1.111       .  S
C977        C978   1.401       .  A
C977        C982   1.400       .  A
C977        H984   1.085       .  S
C978        C979   1.413       .  A
C979        C980   1.401       .  A
C979        C986   1.507       .  S
C980        C981   1.407       .  A
C980        H985   1.084       .  S
C981        C982   1.421       .  A
C982        C983   1.510       .  S
C983        H987   1.111       .  S
C983        H988   1.110       .  S
C983        H989   1.107       .  S
C986        H990   1.109       .  S
C986        H991   1.104       .  S
C986        H992   1.111       .  S
C993        C994   1.400       .  A
C993        C998   1.403       .  A
C993       H1000   1.084       .  S
C994        C995   1.421       .  A
C995        C996   1.403       .  A
C995       C1002   1.507       .  S
C996        C997   1.397       .  A
C996       H1001   1.085       .  S
C997        C998   1.416       .  A
C998        C999   1.508       .  S
C999       H1003   1.111       .  S
C999       H1004   1.108       .  S
C999       H1005   1.107       .  S
C1002      H1006   1.109       .  S
C1002      H1007   1.110       .  S
C1002      H1008   1.111       .  S
C1009      C1010   1.396       .  A
C1009      C1014   1.408       .  A
C1009      H1016   1.084       .  S
C1010      C1011   1.415       .  A
C1011      C1012   1.405       .  A
C1011      C1018   1.502       .  S
C1012      C1013   1.399       .  A
C1012      H1017   1.084       .  S
C1013      C1014   1.428       .  A
C1014      C1015   1.509       .  S
C1015      H1019   1.111       .  S
C1015      H1020   1.110       .  S
C1015      H1021   1.108       .  S
C1018      H1022   1.110       .  S
C1018      H1023   1.109       .  S
C1018      H1024   1.111       .  S
C1025      C1026   1.406       .  A
C1025      C1030   1.407       .  A
C1025      H1032   1.085       .  S
C1026      C1140   1.477   1_554  S
C1026      C2147   1.410   1_554  A
C1027      C1028   1.408       .  A
C1027      C2146   1.408       .  A
C1027      C1034   1.505       .  S
C1028      C2149   1.407       .  A
C1028      H1033   1.085       .  S
C1029      C1030   1.408       .  A
C1029      C2148   1.407   1_554  A
C1030      C1031   1.505       .  S
C1031      H1035   1.111       .  S
C1031      H1036   1.110       .  S
C1031      H1037   1.110       .  S
C1034      H1038   1.110       .  S
C1034      H1039   1.111       .  S
C1034      H1040   1.111       .  S
C1041      C1046   1.405       .  A
C1041      C2162   1.407       .  A
C1041      H1048   1.083       .  S
C1042      C1043   1.414       .  A
C1042      C2161   1.401       .  A
C1043      C1044   1.402       .  A
C1043      C1050   1.510       .  S
C1044      C2165   1.407       .  A
C1044      H1049   1.083       .  S
C1045      C1046   1.414   1_554  A
C1045      C2164   1.401       .  A
C1046      C1047   1.508       .  S
C1047      H1051   1.111       .  S
C1047      H1052   1.110   1_556  S
C1047      H1053   1.110       .  S
C1050      H1054   1.111       .  S
C1050      H1055   1.109       .  S
C1050      H1056   1.111       .  S
C1057      C1058   1.392       .  A
C1057      C1062   1.395       .  A
C1057      H1064   1.082       .  S
C1058      C1059   1.413       .  A
C1059      C1060   1.404       .  A
C1059      C1066   1.507       .  S
C1060      C1061   1.402       .  A
C1060      H1065   1.084       .  S
C1061      C1062   1.423       .  A
C1062      C1063   1.511       .  S
C1063      H1067   1.111       .  S
C1063      H1068   1.109       .  S
C1063      H1069   1.106       .  S
C1066      H1070   1.109       .  S
C1066      H1071   1.110       .  S
C1066      H1072   1.111       .  S
C1073      C1074   1.393       .  A
C1073      C1078   1.400       .  A
C1073      H1080   1.085       .  S
C1074      C1075   1.413       .  A
C1075      C1076   1.399       .  A
C1075      C1082   1.504       .  S
C1076      C1077   1.399       .  A
C1076      H1081   1.084       .  S
C1077      C1078   1.426       .  A
C1078      C1079   1.510       .  S
C1079      H1083   1.111       .  S
C1079      H1084   1.110       .  S
C1079      H1085   1.109       .  S
C1082      H1086   1.110       .  S
C1082      H1087   1.109       .  S
C1082      H1088   1.111       .  S
C1089      C1090   1.404       .  A
C1089      C1094   1.407       .  A
C1089      H1096   1.085       .  S
C1090      C1091   1.415       .  A
C1091      C1092   1.408       .  A
C1091      C1098   1.509       .  S
C1092      C1093   1.407       .  A
C1092      H1097   1.085       .  S
C1093      C1094   1.419       .  A
C1094      C1095   1.510       .  S
C1095      H1099   1.111       .  S
C1095      H1100   1.110       .  S
C1095      H1101   1.108       .  S
C1098      H1102   1.111       .  S
C1098      H1103   1.109       .  S
C1098      H1104   1.111       .  S
C1105      C1106   1.405   1_556  A
C1105      C1110   1.398   1_556  A
C1105      H2232   1.084       .  S
C1106      C1107   1.413       .  A
C1107      C1108   1.405       .  A
C1107      C1114   1.505       .  S
C1108      C1109   1.402       .  A
C1108      H1113   1.082       .  S
C1109      C1110   1.408       .  A
C1110      C2231   1.506   1_554  S
C1111      C2230   1.506       .  S
C1111      H1115   1.111       .  S
C1111      H1117   1.107       .  S
C1111      H2236   1.111       .  S
H1112      C2225   1.085       .  S
C1114      H1118   1.110       .  S
C1114      H1119   1.108       .  S
C1114      H1120   1.111       .  S
H1116      C2231   1.111       .  S
O1121      C1136   1.262       .  A
O1121     Al1129   1.888       .  S
C1122      O1132   1.255       .  A
C1122      O1123   1.267       .  A
C1122      C2178   1.463       .  S
O1123     Al1125   1.932       .  S
O1124      C1126   1.257       .  A
O1124     Al1125   1.901       .  S
C1126      C2226   1.476       .  S
O1127      C1137   1.260       .  A
O1127     Al1129   1.881       .  S
O1128      C1141   1.260       .  A
O1128     Al1138   1.901       .  S
Al1129     O1142   1.890       .  S
Al1129     O1139   1.904       .  S
Al1129     O1134   1.774       .  S
O1130      C1137   1.274       .  A
O1130     Al1138   1.955       .  S
O1131      C1140   1.266       .  A
O1131     Al1138   1.944       .  S
O1133      C1140   1.259       .  A
O1134     Al1138   1.783       .  S
O1135      C1136   1.270       .  A
C1136      C2210   1.479       .  S
C1137      C2162   1.494       .  S
C1141      O1142   1.257       .  A
C1141      C2194   1.457       .  S
O1143      C1158   1.262       .  A
O1143     Al1151   1.881       .  S
C1144      O1154   1.256       .  A
C1144      O1145   1.271       .  A
C1144      C2117   1.471       .  S
O1145     Al1147   1.944       .  S
O1146      C1148   1.258       .  A
O1146     Al1147   1.903       .  S
Al1147     O1155   1.896       .  S
Al1147     O1157   1.947       .  S
Al1147     O1156   1.777       .  S
C1148      O1161   1.256       .  A
C1148      C2098   1.488       .  S
O1149      C1159   1.261       .  A
O1149     Al1151   1.886       .  S
O1150      C1163   1.268       .  A
O1150     Al1160   1.928       .  S
Al1151     O1164   1.909       .  S
Al1151     O1161   1.911       .  S
Al1151     O1156   1.775       .  S
O1152      C1159   1.272       .  A
O1152     Al1160   1.956       .  S
O1153      C1162   1.266       .  A
O1153     Al1160   1.952       .  S
O1154     Al1160   1.859       .  S
O1155      C1162   1.257       .  A
O1156     Al1160   1.787       .  S
O1157      C1158   1.273       .  A
C1158      C2213   1.482       .  S
C1159      C2085   1.480       .  S
C1162      C2066   1.492       .  S
C1163      O1164   1.261       .  A
C1163      C2130   1.478       .  S
O1165      C1180   1.261       .  A
O1165     Al1173   1.896       .  S
C1166      O1176   1.273       .  A
C1166      O1167   1.255       .  A
C1166      C2018   1.483       .  S
O1167     Al1169   1.854       .  S
O1168      C1170   1.268       .  A
O1168     Al1169   1.932       .  S
Al1169     O1177   1.942       .  S
Al1169     O1179   1.916       .  S
Al1169     O1178   1.787       .  S
C1170      O1183   1.267       .  A
C1170      C2002   1.489       .  S
O1171      C1181   1.259       .  A
O1171     Al1173   1.920       .  S
O1172      C1185   1.278       .  A
O1172     Al1182   1.978       .  S
Al1173     O1186   1.881       .  S
Al1173     O1183   1.900       .  S
Al1173     O1178   1.776       .  S
O1174      C1181   1.252       .  A
O1174     Al1182   1.887       .  S
O1175      C1184   1.256       .  A
O1175     Al1182   1.888       .  S
O1176     Al1182   1.948       .  S
O1177      C1184   1.263       .  A
O1178     Al1182   1.772       .  S
O1179      C1180   1.266       .  A
C1180      C2037   1.474       .  S
C1181      C2082   1.492       .  S
C1184      C1986   1.482       .  S
C1185      O1186   1.263       .  A
C1185      C2050   1.498       .  S
O1187      C1202   1.261       .  A
O1187     Al1195   1.909       .  S
C1188      O1198   1.273       .  A
C1188      O1189   1.254   1_556  A
C1188      C2133   1.480       .  S
O1190      C1192   1.270       .  A
O1190     Al1191   1.943       .  S
Al1191     O1199   1.951       .  S
Al1191     O1201   1.911       .  S
Al1191     O1200   1.783       .  S
C1192      O1205   1.259       .  A
C1192      C2229   1.467       .  S
O1193      C1203   1.261       .  A
O1193     Al1195   1.915       .  S
O1194      C1207   1.275       .  A
O1194     Al1204   1.974       .  S
Al1195     O1208   1.893       .  S
Al1195     O1205   1.880       .  S
Al1195     O1200   1.775       .  S
O1196      C1203   1.259       .  A
O1196     Al1204   1.896       .  S
O1197      C1206   1.257       .  A
O1197     Al1204   1.884       .  S
O1199      C1206   1.267       .  A
O1200     Al1204   1.776       .  S
O1201      C1202   1.264       .  A
C1202      C2114   1.478       .  S
C1203      C1970   1.475       .  S
C1206      C1957   1.480       .  S
C1207      O1208   1.262       .  A
C1207      C2053   1.494       .  S
O1209      C1224   1.263       .  A
O1209     Al1217   1.883       .  S
C1210      O1220   1.256       .  A
C1210      O1211   1.268       .  A
C1210      C2034   1.470       .  S
O1211     Al1213   1.928       .  S
O1212      C1214   1.253       .  A
O1212     Al1213   1.880       .  S
C1214      C1938   1.474       .  S
O1215      C1225   1.264       .  A
O1215     Al1217   1.889       .  S
O1216      C1229   1.267       .  A
O1216     Al1226   1.922       .  S
Al1217     O1230   1.894       .  S
Al1217     O1227   1.908       .  S
Al1217     O1222   1.778       .  S
O1218      C1225   1.269       .  A
O1218     Al1226   1.945       .  S
O1219      C1228   1.266       .  A
O1219     Al1226   1.951       .  S
O1221      C1228   1.258       .  A
O1222     Al1226   1.789       .  S
O1223      C1224   1.275       .  A
C1224      C1922   1.489       .  S
C1225      C1973   1.492       .  S
C1229      O1230   1.260       .  A
C1229      C2021   1.473       .  S
O1231      C1246   1.261       .  A
O1231     Al1239   1.883       .  S
C1232      O1242   1.256       .  A
C1232      O1233   1.270       .  A
C1232      C1877   1.469       .  S
O1233     Al1235   1.940       .  S
O1234      C1236   1.255       .  A
O1234     Al1235   1.887       .  S
Al1235     O1243   1.885       .  S
Al1235     O1245   1.961       .  S
Al1235     O1244   1.775       .  S
C1236      O1249   1.258       .  A
C1236      C2005   1.478       .  S
O1237      C1247   1.262       .  A
O1237     Al1239   1.883       .  S
O1238      C1251   1.266       .  A
O1238     Al1248   1.920       .  S
Al1239     O1252   1.907       .  S
Al1239     O1249   1.914       .  S
Al1239     O1244   1.777       .  S
O1240      C1247   1.270       .  A
O1240     Al1248   1.942       .  S
O1241      C1250   1.266       .  A
O1241     Al1248   1.953       .  S
O1242     Al1248   1.859       .  S
O1243      C1250   1.257       .  A
O1244     Al1248   1.788       .  S
O1245      C1246   1.275       .  A
C1246      C1925   1.487       .  S
C1247      C1861   1.488       .  S
C1250      C1845   1.487       .  S
C1251      O1252   1.261       .  A
C1251      C1893   1.475       .  S
O1253      C1268   1.259       .  A
O1253     Al1261   1.891       .  S
C1254      O1264   1.270       .  A
C1254      O1255   1.255       .  A
C1254      C2197   1.470       .  S
O1255     Al1257   1.858       .  S
O1256      C1258   1.268       .  A
O1256     Al1257   1.939       .  S
Al1257     O1265   1.948       .  S
Al1257     O1267   1.912       .  S
Al1257     O1266   1.784       .  S
C1258      O1271   1.266       .  A
C1258      C2101   1.494       .  S
O1259      C1269   1.255       .  A
O1259     Al1261   1.902       .  S
O1260      C1273   1.271       .  A
O1260     Al1270   1.948       .  S
Al1261     O1274   1.885       .  S
Al1261     O1271   1.902       .  S
Al1261     O1266   1.775       .  S
O1262      C1269   1.255       .  A
O1262     Al1270   1.895       .  S
O1263      C1272   1.256       .  A
O1263     Al1270   1.882       .  S
O1264     Al1270   1.934       .  S
O1265      C1272   1.264       .  A
O1266     Al1270   1.778       .  S
O1267      C1268   1.266       .  A
C1268      C2181   1.475       .  S
C1269      C1858   1.465       .  S
C1272      C1810   1.485       .  S
C1273      O1274   1.263       .  A
C1273      C1826   1.481       .  S
O1275      C1290   1.262       .  A
O1275     Al1283   1.902       .  S
C1276      O1286   1.275       .  A
C1276      O1277   1.258       .  A
C1276      C1890   1.483       .  S
O1278      C1280   1.266       .  A
O1278     Al1279   1.920       .  S
Al1279     O1287   1.929       .  S
Al1279     O1289   1.916       .  S
Al1279     O1288   1.781       .  S
C1280      O1293   1.263       .  A
C1280      C1941   1.478       .  S
O1281      C1291   1.260       .  A
O1281     Al1283   1.910       .  S
O1282      C1295   1.273       .  A
O1282     Al1292   1.957       .  S
Al1283     O1296   1.874       .  S
Al1283     O1293   1.892       .  S
Al1283     O1288   1.772       .  S
O1284      C1291   1.257       .  A
O1284     Al1292   1.895       .  S
O1285      C1294   1.256       .  A
O1285     Al1292   1.890       .  S
O1287      C1294   1.261       .  A
O1288     Al1292   1.774       .  S
O1289      C1290   1.267       .  A
C1290      C1874   1.477       .  S
C1291      C2165   1.488       .  S
C1294      C1797   1.473       .  S
C1295      O1296   1.259       .  A
C1295      C1829   1.478       .  S
O1297      C1312   1.263       .  A
O1297     Al1305   1.877       .  S
C1298      O1308   1.253       .  A
C1298      O1299   1.270       .  A
C1298      C1730   1.482       .  S
O1299     Al1301   1.940       .  S
O1300      C1302   1.249       .  A
O1300     Al1301   1.874       .  S
Al1301     O1309   1.886       .  S
Al1301     O1311   1.975       .  S
Al1301     O1310   1.772       .  S
C1302      O1315   1.256       .  A
C1302      C1781   1.471       .  S
O1303      C1313   1.264   1_455  A
O1303     Al1305   1.883       .  S
O1304      C1317   1.267       .  A
O1304     Al1314   1.923       .  S
Al1305     O1318   1.895       .  S
Al1305     O1315   1.916       .  S
Al1305     O1310   1.780       .  S
O1306      C1313   1.270       .  A
O1306     Al1314   1.940   1_655  S
O1307      C1316   1.268       .  A
O1307     Al1314   1.959       .  S
O1308     Al1314   1.858       .  S
O1309      C1316   1.256       .  A
O1310     Al1314   1.787       .  S
O1311      C1312   1.279       .  A
C1312      C1762   1.490       .  S
C1313      C1717   1.489       .  S
C1316      C1842   1.492       .  S
C1317      O1318   1.258       .  A
C1317      C1746   1.475   1_455  S
O1319      C1334   1.262       .  A
O1319     Al1327   1.878       .  S
C1320      O1330   1.250       .  A
C1320      O1321   1.275       .  A
C1320      C1682   1.481       .  S
O1322      C1324   1.253       .  A
O1322     Al1323   1.886       .  S
Al1323     O1331   1.886       .  S
Al1323     O1333   1.976       .  S
Al1323     O1332   1.771       .  S
C1324      O1337   1.257       .  A
C1324      C1669   1.476       .  S
O1325      C1335   1.261       .  A
O1325     Al1327   1.882   1_565  S
O1326      C1339   1.264   1_545  A
O1326     Al1336   1.910       .  S
Al1327     O1340   1.898       .  S
Al1327     O1337   1.910       .  S
Al1327     O1332   1.774       .  S
O1328      C1335   1.274       .  A
O1328     Al1336   1.953   1_565  S
O1329      C1338   1.268       .  A
O1329     Al1336   1.962       .  S
O1331      C1338   1.257       .  A
O1332     Al1336   1.781       .  S
O1333      C1334   1.278       .  A
C1334      C1765   1.490       .  S
C1335      C1653   1.489       .  S
C1338      C1906   1.491       .  S
C1339      O1340   1.260   1_565  A
C1339      C1701   1.460       .  S
O1341      C1356   1.266       .  A
O1341     Al1349   1.923       .  S
C1342      O1352   1.275       .  A
C1342      O1343   1.259       .  A
C1342      C1621   1.488       .  S
Al1345     O1353   1.942       .  S
Al1345     O1355   1.908       .  S
Al1345     O1354   1.781       .  S
C1346      O1359   1.260   1_655  A
C1346      C1586   1.472       .  S
O1347     Al1349   1.924       .  S
O1348      C1361   1.273       .  A
Al1349     O1362   1.873       .  S
Al1349     O1359   1.882       .  S
Al1349     O1354   1.771       .  S
O1350      C1357   1.258       .  A
O1350     Al1358   1.896       .  S
O1351     Al1358   1.887       .  S
O1352     Al1358   1.968       .  S
O1353      C1360   1.263       .  A
O1355      C1356   1.265       .  A
C1356      C1637   1.479       .  S
C1357      C1650   1.482       .  S
C1361      O1362   1.259       .  A
C1361      C1602   1.481       .  S
O1363      C1378   1.261       .  A
O1363     Al1371   1.915       .  S
C1364      O1374   1.271       .  A
C1364      O1365   1.248       .  A
C1364      C1698   1.482       .  S
O1365     Al1367   1.841       .  S
O1366      C1368   1.274       .  A
O1366     Al1367   1.939       .  S
Al1367     O1375   1.959       .  S
Al1367     O1377   1.907       .  S
Al1367     O1376   1.775       .  S
C1368      O1381   1.263       .  A
C1368      C1778   1.484   1_565  S
O1369      C1379   1.259       .  A
O1369     Al1371   1.924       .  S
O1370      C1383   1.279       .  A
O1370     Al1380   1.973       .  S
Al1371     O1384   1.871       .  S
Al1371     O1381   1.883       .  S
Al1371     O1376   1.775       .  S
O1372      C1379   1.253       .  A
O1372     Al1380   1.890       .  S
O1373      C1382   1.256       .  A
O1373     Al1380   1.881       .  S
O1374     Al1380   1.947       .  S
O1375      C1382   1.268       .  A
O1376     Al1380   1.768       .  S
O1377      C1378   1.263       .  A
C1378      C1685   1.468       .  S
C1379      C1573   1.478       .  S
C1382      C1813   1.486       .  S
C1383      O1384   1.263       .  A
C1383      C1605   1.482       .  S
O1385      C1400   1.262       .  A
O1385     Al1393   1.881       .  S
C1386      O1396   1.256       .  A
C1386      O1387   1.270       .  A
C1386      C1634   1.475       .  S
O1387     Al1389   1.947       .  S
O1388      C1390   1.255       .  A
O1388     Al1389   1.884       .  S
Al1389     O1397   1.892       .  S
Al1389     O1399   1.963       .  S
Al1389     O1398   1.780       .  S
C1390      O1403   1.256       .  A
C1390      C1557   1.471       .  S
O1391      C1401   1.259   1_655  A
O1391     Al1393   1.878       .  S
O1392      C1405   1.270   1_655  A
O1392     Al1402   1.939       .  S
Al1393     O1406   1.893       .  S
Al1393     O1403   1.902       .  S
Al1393     O1398   1.778       .  S
O1394      C1401   1.271       .  A
O1394     Al1402   1.948   1_455  S
O1395      C1404   1.268       .  A
O1395     Al1402   1.959       .  S
O1396     Al1402   1.863       .  S
O1397      C1404   1.258       .  A
O1398     Al1402   1.787       .  S
O1399      C1400   1.274       .  A
C1400      C1538   1.492       .  S
C1401      C1570   1.471       .  S
C1404      C2069   1.492       .  S
C1405      O1406   1.258   1_455  A
C1405      C1618   1.481       .  S
O1407      C1422   1.264       .  A
O1407     Al1415   1.896       .  S
C1408      O1418   1.255       .  A
C1408      O1409   1.266       .  A
C1408      C1506   1.462       .  S
O1410      C1412   1.255       .  A
O1410     Al1411   1.891       .  S
Al1411     O1419   1.882       .  S
Al1411     O1421   1.955       .  S
Al1411     O1420   1.774       .  S
C1412      O1425   1.259       .  A
C1412      C1589   1.486       .  S
O1413      C1423   1.261   1_565  A
O1413     Al1415   1.885       .  S
O1414      C1427   1.264       .  A
O1414     Al1424   1.912       .  S
Al1415     O1428   1.894       .  S
Al1415     O1425   1.907       .  S
Al1415     O1420   1.776       .  S
O1416      C1423   1.269       .  A
O1416     Al1424   1.943   1_545  S
O1417      C1426   1.265       .  A
O1417     Al1424   1.941       .  S
O1419      C1426   1.257       .  A
O1420     Al1424   1.786       .  S
O1421      C1422   1.272       .  A
C1422      C1541   1.488       .  S
C1423      C1490   1.467       .  S
C1426      C2149   1.476       .  S
C1427      O1428   1.259       .  A
C1427      C1522   1.469       .  S
O1429      C1444   1.261       .  A
O1429     Al1437   1.910       .  S
C1430      O1440   1.271       .  A
C1430      O1431   1.256       .  A
C1430      C1749   1.474       .  S
Al1433     O1441   1.944       .  S
Al1433     O1443   1.914       .  S
Al1433     O1442   1.780       .  S
C1434      O1447   1.262   1_455  A
C1434      C1666   1.488       .  S
O1435     Al1437   1.912       .  S
O1436      C1449   1.273       .  A
Al1437     O1450   1.888       .  S
Al1437     O1447   1.891       .  S
Al1437     O1442   1.772       .  S
O1438      C1445   1.257       .  A
O1438     Al1446   1.900       .  S
O1439     Al1446   1.890       .  S
O1440     Al1446   1.950       .  S
O1441      C1448   1.265       .  A
O1443      C1444   1.265       .  A
C1444      C1733   1.474   1_655  S
C1445      C1493   1.488       .  S
C1449      O1450   1.262       .  A
C1449      C1474   1.481       .  S
O1451      C1466   1.263   1_545  A
O1451     Al1459   1.898       .  S
C1452      O1462   1.273       .  A
C1452      O1453   1.260       .  A
C1452      C1525   1.473       .  S
O1453     Al1455   1.861       .  S
O1454      C1456   1.260       .  A
O1454     Al1455   1.910   1_565  S
Al1455     O1463   1.924       .  S
Al1455     O1465   1.907       .  S
Al1455     O1464   1.792       .  S
C1456      O1469   1.262       .  A
C1456      C1554   1.484       .  S
O1457      C1467   1.254       .  A
O1457     Al1459   1.895       .  S
O1458      C1471   1.272       .  A
O1458     Al1468   1.953       .  S
Al1459     O1472   1.872       .  S
Al1459     O1469   1.899   1_545  S
Al1459     O1464   1.779       .  S
O1460      C1467   1.252       .  A
O1460     Al1468   1.881       .  S
O1461      C1470   1.255       .  A
O1461     Al1468   1.889       .  S
O1462     Al1468   1.946       .  S
O1463      C1470   1.257       .  A
O1464     Al1468   1.781       .  S
O1465      C1466   1.268   1_545  A
C1466      C1509   1.473       .  S
C1467      C1714   1.466       .  S
C1470      C1989   1.479       .  S
C1471      O1472   1.258       .  A
C1471      C1477   1.486       .  S
C1473      C1474   1.402       .  A
C1473      C1478   1.406       .  A
C1473      H1480   1.085       .  S
C1474      C1475   1.415       .  A
C1475      C1476   1.408       .  A
C1475      C1482   1.507       .  S
C1476      C1477   1.405       .  A
C1476      H1481   1.085       .  S
C1477      C1478   1.419       .  A
C1478      C1479   1.510       .  S
C1479      H1483   1.111       .  S
C1479      H1484   1.109       .  S
C1479      H1485   1.110       .  S
C1482      H1486   1.110       .  S
C1482      H1487   1.110       .  S
C1482      H1488   1.111       .  S
C1489      C1490   1.400       .  A
C1489      C1494   1.407       .  A
C1489      H1496   1.084       .  S
C1490      C1491   1.406       .  A
C1491      C1492   1.401       .  A
C1491      C1498   1.508       .  S
C1492      C1493   1.410       .  A
C1492      H1497   1.084       .  S
C1493      C1494   1.419       .  A
C1494      C1495   1.508       .  S
C1495      H1499   1.111       .  S
C1495      H1500   1.110       .  S
C1498      H1502   1.110       .  S
C1498      H1503   1.111   1_545  S
C1498      H1504   1.111       .  S
C1505      C1506   1.394       .  A
C1505      C1510   1.396       .  A
C1505      H1512   1.085       .  S
C1506      C1507   1.412       .  A
C1507      C1508   1.403       .  A
C1507      C1514   1.507       .  S
C1508      C1509   1.402       .  A
C1508      H1513   1.084   1_565  S
C1509      C1510   1.423       .  A
C1510      C1511   1.511       .  S
C1511      H1515   1.111       .  S
C1511      H1516   1.111       .  S
C1511      H1517   1.103       .  S
C1514      H1518   1.109   1_565  S
C1514      H1519   1.111       .  S
C1514      H1520   1.111   1_565  S
C1521      C1522   1.407   1_545  A
C1521      C1526   1.401       .  A
C1521      H1528   1.084       .  S
C1522      C1523   1.406       .  A
C1523      C1524   1.402       .  A
C1523      C1530   1.507       .  S
C1524      C1525   1.409   1_565  A
C1524      H1529   1.084       .  S
C1525      C1526   1.408       .  A
C1526      C1527   1.507       .  S
C1527      H1531   1.111       .  S
C1527      H1532   1.110       .  S
C1527      H1533   1.111       .  S
C1530      H1534   1.111       .  S
C1530      H1535   1.110       .  S
C1530      H1536   1.111       .  S
C1537      C1538   1.407       .  A
C1537      C1542   1.407       .  A
C1537      H1544   1.084       .  S
C1538      C1539   1.418       .  A
C1539      C1540   1.410       .  A
C1539      C1546   1.506       .  S
C1540      C1541   1.405       .  A
C1540      H1545   1.084       .  S
C1541      C1542   1.416       .  A
C1542      C1543   1.508       .  S
C1543      H1547   1.111       .  S
C1543      H1548   1.108       .  S
C1543      H1549   1.110       .  S
C1546      H1550   1.108       .  S
C1546      H1551   1.110       .  S
C1546      H1552   1.111       .  S
C1553      C1554   1.406       .  A
C1553      C1558   1.402       .  A
C1553      H1560   1.084       .  S
C1554      C1555   1.423       .  A
C1555      C1556   1.399       .  A
C1555      C1562   1.511       .  S
C1556      C1557   1.399       .  A
C1556      H1561   1.085       .  S
C1557      C1558   1.412       .  A
C1558      C1559   1.508       .  S
C1559      H1563   1.111       .  S
C1559      H1564   1.109       .  S
C1559      H1565   1.110       .  S
C1562      H1566   1.110       .  S
C1562      H1567   1.108       .  S
C1562      H1568   1.111       .  S
C1569      C1570   1.403       .  A
C1569      C1574   1.404       .  A
C1569      H1576   1.083       .  S
C1570      C1571   1.409       .  A
C1571      C1572   1.402       .  A
C1571      C1578   1.507       .  S
C1572      C1573   1.406       .  A
C1572      H1577   1.084       .  S
C1573      C1574   1.415       .  A
C1574      C1575   1.508       .  S
C1575      H1579   1.111       .  S
C1575      H1580   1.110       .  S
C1575      H1581   1.109       .  S
C1578      H1582   1.109       .  S
C1578      H1583   1.111       .  S
C1578      H1584   1.111       .  S
C1585      C1590   1.402       .  A
C1587      C1588   1.400       .  A
C1588      C1589   1.409       .  A
C1588      H1593   1.083       .  S
C1589      C1590   1.421       .  A
C1590      C1591   1.508       .  S
C1591      H1595   1.111       .  S
C1591      H1597   1.110       .  S
C1594      H1598   1.110       .  S
C1601      C1602   1.402       .  A
C1601      C1606   1.404       .  A
C1601      H1608   1.085       .  S
C1602      C1603   1.418       .  A
C1603      C1604   1.407       .  A
C1603      C1610   1.509       .  S
C1604      C1605   1.403       .  A
C1604      H1609   1.085       .  S
C1605      C1606   1.418       .  A
C1606      C1607   1.508       .  S
C1607      H1611   1.109       .  S
C1607      H1612   1.110       .  S
C1607      H1613   1.111       .  S
C1610      H1614   1.108       .  S
C1610      H1615   1.110       .  S
C1610      H1616   1.111       .  S
C1617      C1618   1.397       .  A
C1617      C1622   1.408       .  A
C1617      H1624   1.084   1_455  S
C1618      C1619   1.419       .  A
C1619      C1620   1.406       .  A
C1619      C1626   1.507       .  S
C1620      C1621   1.399       .  A
C1620      H1625   1.084       .  S
C1621      C1622   1.423       .  A
C1622      C1623   1.508       .  S
C1623      H1627   1.111   1_455  S
C1623      H1628   1.110       .  S
C1623      H1629   1.109   1_455  S
C1626      H1630   1.110       .  S
C1626      H1631   1.106       .  S
C1626      H1632   1.111       .  S
C1633      C1634   1.406       .  A
C1633      C1638   1.406   1_655  A
C1633      H1640   1.084   1_655  S
C1634      C1635   1.410       .  A
C1635      C1636   1.403       .  A
C1635      C1642   1.507       .  S
C1636      C1637   1.407   1_655  A
C1636      H1641   1.084       .  S
C1637      C1638   1.411       .  A
C1638      C1639   1.507       .  S
C1639      H1643   1.111       .  S
C1639      H1644   1.110       .  S
C1639      H1645   1.110       .  S
C1642      H1646   1.110       .  S
C1642      H1647   1.110       .  S
C1642      H1648   1.111       .  S
C1649      H1656   1.085   1_554  S
C1650      C1651   1.416       .  A
C1651      C1652   1.404       .  A
C1651      C1658   1.508       .  S
C1652      C1653   1.405       .  A
C1652      H1657   1.083       .  S
C1653      C1654   1.421       .  A
C1655      H1659   1.111   1_554  S
C1655      H1660   1.111   1_554  S
C1655      H1661   1.110       .  S
C1658      H1662   1.111       .  S
C1658      H1663   1.110       .  S
C1658      H1664   1.111       .  S
C1665      C1670   1.399       .  A
C1665      H1672   1.080       .  S
C1666      C1667   1.420   1_556  A
C1667      C1668   1.407       .  A
C1667      C1674   1.509       .  S
C1668      H1673   1.084       .  S
C1669      C1670   1.415       .  A
C1670      C1671   1.509       .  S
C1671      H1675   1.111       .  S
C1671      H1676   1.110       .  S
C1671      H1677   1.110       .  S
C1674      H1678   1.110       .  S
C1674      H1679   1.111       .  S
C1674      H1680   1.111       .  S
C1681      C1682   1.399       .  A
C1681      C1686   1.403       .  A
C1681      H1688   1.084       .  S
C1682      C1683   1.428   1_545  A
C1683      C1684   1.400       .  A
C1683      C1690   1.511       .  S
C1684      C1685   1.392       .  A
C1684      H1689   1.085       .  S
C1685      C1686   1.415   1_565  A
C1686      C1687   1.505       .  S
C1687      H1691   1.111       .  S
C1687      H1692   1.109       .  S
C1687      H1693   1.110       .  S
C1690      H1694   1.109       .  S
C1690      H1695   1.109       .  S
C1690      H1696   1.111       .  S
C1697      C1698   1.401       .  A
C1697      C1702   1.400       .  A
C1697      H1704   1.083       .  S
C1698      C1699   1.429       .  A
C1699      C1700   1.400       .  A
C1699      C1706   1.511   1_565  S
C1700      C1701   1.391       .  A
C1700      H1705   1.084   1_565  S
C1701      C1702   1.412       .  A
C1702      C1703   1.505       .  S
C1703      H1707   1.111       .  S
C1703      H1708   1.110       .  S
C1703      H1709   1.109       .  S
C1706      H1710   1.110   1_545  S
C1706      H1711   1.110       .  S
C1706      H1712   1.111       .  S
C1713      C1714   1.399       .  A
C1713      C1718   1.401       .  A
C1713      H1720   1.085       .  S
C1714      C1715   1.406       .  A
C1715      C1716   1.402       .  A
C1715      C1722   1.508       .  S
C1716      C1717   1.412       .  A
C1716      H1721   1.084       .  S
C1717      C1718   1.422       .  A
C1718      C1719   1.509       .  S
C1719      H1723   1.111       .  S
C1719      H1724   1.108       .  S
C1719      H1725   1.110       .  S
C1722      H1726   1.111       .  S
C1722      H1727   1.110       .  S
C1722      H1728   1.111       .  S
C1729      C1730   1.400       .  A
C1729      C1734   1.403       .  A
C1729      H1736   1.084       .  S
C1730      C1731   1.423       .  A
C1731      C1732   1.403       .  A
C1731      C1738   1.509   1_455  S
C1732      C1733   1.396       .  A
C1732      H1737   1.085   1_455  S
C1733      C1734   1.417       .  A
C1734      C1735   1.507       .  S
C1735      H1739   1.111       .  S
C1735      H1740   1.109       .  S
C1735      H1741   1.108       .  S
C1738      H1742   1.108       .  S
C1738      H1743   1.110   1_655  S
C1738      H1744   1.111       .  S
C1745      C1746   1.397   1_455  A
C1745      C1750   1.405   1_455  A
C1745      H1752   1.084       .  S
C1746      C1747   1.421       .  A
C1747      C1748   1.401       .  A
C1747      C1754   1.509       .  S
C1748      C1749   1.396       .  A
C1748      H1753   1.085       .  S
C1749      C1750   1.420       .  A
C1750      C1751   1.508   1_655  S
C1751      H1755   1.111       .  S
C1751      H1756   1.111   1_455  S
C1751      H1757   1.108       .  S
C1754      H1758   1.108       .  S
C1754      H1759   1.108       .  S
C1754      H1760   1.111       .  S
C1761      C1762   1.404       .  A
C1761      C1766   1.410       .  A
C1761      H1768   1.084       .  S
C1762      C1763   1.420       .  A
C1763      C1764   1.408       .  A
C1763      C1770   1.508       .  S
C1764      C1765   1.403       .  A
C1764      H1769   1.085       .  S
C1765      C1766   1.420       .  A
C1766      C1767   1.509       .  S
C1767      H1771   1.111       .  S
C1767      H1772   1.110       .  S
C1767      H1773   1.108       .  S
C1770      H1774   1.109       .  S
C1770      H1775   1.111       .  S
C1770      H1776   1.110       .  S
C1777      C1778   1.403       .  A
C1777      C1782   1.396       .  A
C1777      H1784   1.082       .  S
C1778      C1779   1.422       .  A
C1779      C1780   1.405       .  A
C1779      C1786   1.508   1_545  S
C1780      C1781   1.400       .  A
C1780      H1785   1.084       .  S
C1781      C1782   1.413       .  A
C1782      C1783   1.509       .  S
C1783      H1787   1.111       .  S
C1783      H1788   1.109       .  S
C1783      H1789   1.110       .  S
C1786      H1790   1.110       .  S
C1786      H1791   1.110       .  S
C1786      H1792   1.111       .  S
C1793      C1794   1.407       .  A
C1793      C1798   1.406       .  A
C1793      H1800   1.084       .  S
C1795      C1802   1.506       .  S
C1796      C1797   1.406       .  A
C1797      C1798   1.407       .  A
C1798      C1799   1.506       .  S
C1799      H1803   1.111       .  S
C1799      H1804   1.110       .  S
C1799      H1805   1.110       .  S
C1802      H1806   1.110       .  S
C1802      H1807   1.110       .  S
C1802      H1808   1.111       .  S
C1809      C1810   1.396       .  A
C1809      C1814   1.404       .  A
C1809      H1816   1.085       .  S
C1810      C1811   1.422       .  A
C1811      C1812   1.409       .  A
C1811      C1818   1.501       .  S
C1812      C1813   1.398       .  A
C1812      H1817   1.085       .  S
C1813      C1814   1.420       .  A
C1814      C1815   1.500       .  S
C1815      H1819   1.111       .  S
C1815      H1820   1.108       .  S
C1815      H1821   1.106       .  S
C1818      H1822   1.100       .  S
C1818      H1823   1.110       .  S
C1818      H1824   1.110       .  S
C1825      C1826   1.404       .  A
C1825      C1830   1.406       .  A
C1825      H1832   1.083       .  S
C1826      C1827   1.416       .  A
C1827      C1828   1.403       .  A
C1827      C1834   1.508       .  S
C1828      C1829   1.402       .  A
C1828      H1833   1.085       .  S
C1829      C1830   1.416       .  A
C1830      C1831   1.509       .  S
C1831      H1835   1.111       .  S
C1831      H1836   1.109       .  S
C1831      H1837   1.110       .  S
C1834      H1838   1.109       .  S
C1834      H1839   1.110       .  S
C1834      H1840   1.111       .  S
C1841      C1842   1.401       .  A
C1841      C1846   1.414       .  A
C1841      H1848   1.084       .  S
C1842      C1843   1.421       .  A
C1843      C1844   1.403       .  A
C1843      C1850   1.500       .  S
C1844      C1845   1.395       .  A
C1844      H1849   1.085       .  S
C1845      C1846   1.420       .  A
C1846      C1847   1.502       .  S
C1847      H1851   1.111       .  S
C1847      H1852   1.105       .  S
C1847      H1853   1.110       .  S
C1850      H1854   1.106       .  S
C1850      H1855   1.107       .  S
C1850      H1856   1.111       .  S
C1857      C1858   1.398       .  A
C1857      C1862   1.401       .  A
C1857      H1864   1.084       .  S
C1858      C1859   1.405       .  A
C1859      C1860   1.404       .  A
C1859      C1866   1.506       .  S
C1860      C1861   1.413       .  A
C1860      H1865   1.084       .  S
C1861      C1862   1.419       .  A
C1862      C1863   1.509       .  S
C1863      H1867   1.111       .  S
C1863      H1868   1.109       .  S
C1863      H1869   1.111       .  S
C1866      H1870   1.110       .  S
C1866      H1871   1.110       .  S
C1866      H1872   1.111       .  S
C1873      C1874   1.409       .  A
C1873      C1878   1.399       .  A
C1873      H1880   1.084       .  S
C1874      C1875   1.410       .  A
C1875      C1876   1.405       .  A
C1875      C1882   1.506       .  S
C1876      C1877   1.407       .  A
C1876      H1881   1.084       .  S
C1877      C1878   1.406       .  A
C1878      C1879   1.508       .  S
C1879      H1883   1.111       .  S
C1879      H1884   1.110       .  S
C1879      H1885   1.111       .  S
C1882      H1886   1.110       .  S
C1882      H1887   1.111       .  S
C1882      H1888   1.111       .  S
C1889      C1890   1.401       .  A
C1889      C1894   1.405       .  A
C1889      H1896   1.084       .  S
C1890      C1891   1.422       .  A
C1891      C1892   1.405       .  A
C1891      C1898   1.509       .  S
C1892      C1893   1.396       .  A
C1892      H1897   1.084       .  S
C1893      C1894   1.417       .  A
C1894      C1895   1.509       .  S
C1895      H1899   1.111       .  S
C1895      H1900   1.110       .  S
C1895      H1901   1.109       .  S
C1898      H1902   1.111       .  S
C1898      H1903   1.109       .  S
C1898      H1904   1.111       .  S
C1905      C1906   1.397       .  A
C1905      C1910   1.408       .  A
C1905      H1912   1.084       .  S
C1906      C1907   1.422       .  A
C1907      C1908   1.410       .  A
C1907      C1914   1.500       .  S
C1908      C1909   1.399       .  A
C1909      C1910   1.422       .  A
C1910      C1911   1.498       .  S
C1911      H1915   1.111       .  S
C1911      H1916   1.105       .  S
C1914      H1918   1.110       .  S
C1914      H1920   1.110       .  S
C1921      C1922   1.406       .  A
C1921      C1926   1.410       .  A
C1921      H1928   1.084       .  S
C1922      C1923   1.418       .  A
C1923      C1924   1.406       .  A
C1923      C1930   1.507       .  S
C1924      C1925   1.403       .  A
C1924      H1929   1.085       .  S
C1925      C1926   1.418       .  A
C1926      C1927   1.509       .  S
C1927      H1931   1.111       .  S
C1927      H1932   1.110       .  S
C1927      H1933   1.109       .  S
C1930      H1934   1.109       .  S
C1930      H1935   1.111       .  S
C1930      H1936   1.110       .  S
C1937      C1938   1.401       .  A
C1937      C1942   1.397       .  A
C1937      H1944   1.084       .  S
C1938      C1939   1.414       .  A
C1939      C1940   1.403       .  A
C1940      C1941   1.405       .  A
C1940      H1945   1.084       .  S
C1941      C1942   1.418       .  A
C1942      C1943   1.510       .  S
C1943      H1947   1.111       .  S
C1943      H1948   1.110       .  S
C1943      H1949   1.108       .  S
C1946      H1950   1.109       .  S
C1946      H1952   1.111       .  S
C1953      C1954   1.407       .  A
C1953      C1958   1.407       .  A
C1953      H1960   1.084       .  S
C1955      C1956   1.407       .  A
C1955      C1962   1.506       .  S
C1956      H1961   1.083       .  S
C1957      C1958   1.409       .  A
C1958      C1959   1.506       .  S
C1959      H1963   1.111       .  S
C1959      H1964   1.110       .  S
C1959      H1965   1.110       .  S
C1962      H1966   1.110       .  S
C1962      H1967   1.110       .  S
C1962      H1968   1.111       .  S
C1969      C1970   1.402       .  A
C1969      C1974   1.405       .  A
C1969      H1976   1.085       .  S
C1971      C1972   1.400       .  A
C1971      C1978   1.508       .  S
C1972      C1973   1.407   1_554  A
C1972      H1977   1.084       .  S
C1974      C1975   1.507       .  S
C1975      H1979   1.111       .  S
C1975      H1980   1.109       .  S
C1975      H1981   1.110       .  S
C1978      H1982   1.106       .  S
C1978      H1983   1.110       .  S
C1978      H1984   1.111       .  S
C1985      C1986   1.397       .  A
C1985      C1990   1.405       .  A
C1985      H1992   1.085       .  S
C1986      C1987   1.420       .  A
C1987      C1988   1.403       .  A
C1987      C1994   1.499       .  S
C1988      C1989   1.394       .  A
C1988      H1993   1.085       .  S
C1989      C1990   1.420       .  A
C1990      C1991   1.501       .  S
C1991      H1995   1.111       .  S
C1991      H1996   1.102       .  S
C1991      H1997   1.110       .  S
C1994      H1998   1.109       .  S
C1994      H1999   1.104       .  S
C1994      H2000   1.111       .  S
C2001      C2002   1.407       .  A
C2001      C2006   1.404       .  A
C2001      H2008   1.084       .  S
C2002      C2003   1.422       .  A
C2003      C2004   1.403       .  A
C2003      C2010   1.510       .  S
C2004      C2005   1.401       .  A
C2004      H2009   1.085       .  S
C2005      C2006   1.412       .  A
C2006      C2007   1.508       .  S
C2007      H2011   1.111       .  S
C2007      H2012   1.109       .  S
C2007      H2013   1.111       .  S
C2010      H2014   1.110       .  S
C2010      H2015   1.110       .  S
C2010      H2016   1.111       .  S
C2017      C2018   1.411       .  A
C2017      C2022   1.403       .  A
C2017      H2024   1.085       .  S
C2018      C2019   1.408       .  A
C2019      C2020   1.403       .  A
C2019      C2026   1.505       .  S
C2020      C2021   1.408       .  A
C2020      H2025   1.083       .  S
C2021      C2022   1.409       .  A
C2022      C2023   1.507       .  S
C2023      H2027   1.110       .  S
C2023      H2028   1.107       .  S
C2023      H2029   1.110       .  S
C2026      H2030   1.110       .  S
C2026      H2031   1.110       .  S
C2026      H2032   1.111       .  S
C2033      C2034   1.407       .  A
C2033      C2038   1.403       .  A
C2033      H2040   1.084       .  S
C2034      C2035   1.407       .  A
C2035      C2036   1.399       .  A
C2035      C2042   1.508       .  S
C2036      C2037   1.409       .  A
C2036      H2041   1.085       .  S
C2037      C2038   1.408       .  A
C2038      C2039   1.506       .  S
C2039      H2043   1.111       .  S
C2039      H2044   1.110       .  S
C2039      H2045   1.110       .  S
C2042      H2046   1.110       .  S
C2042      H2047   1.111       .  S
C2042      H2048   1.111       .  S
C2049      C2050   1.408       .  A
C2049      C2054   1.408       .  A
C2049      H2056   1.084       .  S
C2050      C2051   1.417       .  A
C2051      C2052   1.413       .  A
C2051      C2058   1.506       .  S
C2052      C2053   1.407       .  A
C2052      H2057   1.084       .  S
C2053      C2054   1.415       .  A
C2054      C2055   1.505       .  S
C2055      H2059   1.111       .  S
C2055      H2060   1.110       .  S
C2055      H2061   1.107       .  S
C2058      H2062   1.110       .  S
C2058      H2063   1.109       .  S
C2058      H2064   1.111       .  S
C2065      C2066   1.408       .  A
C2065      C2070   1.412       .  A
C2065      H2072   1.082       .  S
C2066      C2067   1.412       .  A
C2067      C2068   1.413       .  A
C2067      C2074   1.506       .  S
C2068      C2069   1.410       .  A
C2068      H2073   1.084       .  S
C2069      C2070   1.410       .  A
C2070      C2071   1.504       .  S
C2071      H2075   1.111       .  S
C2071      H2076   1.110       .  S
C2071      H2077   1.110       .  S
C2074      H2078   1.110       .  S
C2074      H2079   1.110       .  S
C2074      H2080   1.111       .  S
C2081      C2082   1.408       .  A
C2081      C2086   1.405       .  A
C2081      H2088   1.083       .  S
C2082      C2083   1.423       .  A
C2083      C2084   1.403       .  A
C2083      C2090   1.509       .  S
C2084      C2085   1.397       .  A
C2084      H2089   1.074       .  S
C2085      C2086   1.412       .  A
C2086      C2087   1.508       .  S
C2087      H2091   1.111       .  S
C2087      H2092   1.111       .  S
C2087      H2093   1.104       .  S
C2090      H2094   1.110       .  S
C2090      H2095   1.108       .  S
C2090      H2096   1.111       .  S
C2097      C2098   1.403       .  A
C2097      C2102   1.406       .  A
C2097      H2104   1.084       .  S
C2098      C2099   1.417       .  A
C2099      C2100   1.405       .  A
C2099      C2106   1.508       .  S
C2100      C2101   1.407       .  A
C2100      H2105   1.084       .  S
C2101      C2102   1.422       .  A
C2102      C2103   1.510       .  S
C2103      H2107   1.111       .  S
C2103      H2108   1.110       .  S
C2103      H2109   1.105       .  S
C2106      H2110   1.109       .  S
C2106      H2111   1.105       .  S
C2106      H2112   1.111       .  S
C2113      C2114   1.400       .  A
C2113      C2118   1.404       .  A
C2113      H2120   1.084       .  S
C2114      C2115   1.419       .  A
C2115      C2116   1.401       .  A
C2115      C2122   1.507       .  S
C2116      C2117   1.397       .  A
C2116      H2121   1.084       .  S
C2117      C2118   1.418       .  A
C2118      C2119   1.508       .  S
C2119      H2123   1.111       .  S
C2119      H2124   1.108       .  S
C2119      H2125   1.109       .  S
C2122      H2126   1.109       .  S
C2122      H2127   1.110       .  S
C2122      H2128   1.111       .  S
C2129      C2130   1.397       .  A
C2129      C2134   1.406       .  A
C2129      H2136   1.084       .  S
C2130      C2131   1.417       .  A
C2131      C2132   1.402       .  A
C2131      C2138   1.501       .  S
C2132      C2133   1.396       .  A
C2132      H2137   1.084       .  S
C2133      C2134   1.423       .  A
C2134      C2135   1.509       .  S
C2135      H2139   1.111       .  S
C2135      H2140   1.111       .  S
C2135      H2141   1.108       .  S
C2138      H2142   1.110       .  S
C2138      H2143   1.109       .  S
C2138      H2144   1.111       .  S
C2145      C2146   1.405       .  A
C2145      C2150   1.405       .  A
C2145      H2152   1.085       .  S
C2147      C2148   1.408       .  A
C2147      C2154   1.506       .  S
C2148      H2153   1.085       .  S
C2149      C2150   1.410       .  A
C2150      C2151   1.507       .  S
C2151      H2155   1.111       .  S
C2151      H2156   1.110       .  S
C2151      H2157   1.110       .  S
C2154      H2158   1.110       .  S
C2154      H2159   1.110       .  S
C2154      H2160   1.111       .  S
C2161      C2166   1.405       .  A
C2161      H2168   1.078       .  S
C2162      C2163   1.424   1_556  A
C2163      C2164   1.405       .  A
C2163      C2170   1.510       .  S
C2164      H2169   1.085       .  S
C2165      C2166   1.420       .  A
C2166      C2167   1.508       .  S
C2167      H2171   1.111       .  S
C2167      H2172   1.110       .  S
C2167      H2173   1.110       .  S
C2170      H2174   1.110       .  S
C2170      H2175   1.110   1_554  S
C2170      H2176   1.111       .  S
C2177      C2178   1.391       .  A
C2177      C2182   1.394       .  A
C2177      H2184   1.081       .  S
C2178      C2179   1.413       .  A
C2179      C2180   1.404       .  A
C2179      C2186   1.507       .  S
C2180      C2181   1.403       .  A
C2180      H2185   1.084       .  S
C2181      C2182   1.423       .  A
C2182      C2183   1.511       .  S
C2183      H2187   1.111       .  S
C2183      H2188   1.109       .  S
C2183      H2189   1.104       .  S
C2186      H2190   1.109       .  S
C2186      H2191   1.111       .  S
C2186      H2192   1.111       .  S
C2193      C2194   1.394       .  A
C2193      C2198   1.398       .  A
C2193      H2200   1.085       .  S
C2194      C2195   1.412       .  A
C2195      C2196   1.397       .  A
C2195      C2202   1.507       .  S
C2196      C2197   1.399       .  A
C2196      H2201   1.084       .  S
C2197      C2198   1.423       .  A
C2198      C2199   1.510       .  S
C2199      H2203   1.111       .  S
C2199      H2204   1.105       .  S
C2199      H2205   1.110       .  S
C2202      H2206   1.110       .  S
C2202      H2207   1.109       .  S
C2202      H2208   1.111       .  S
C2209      C2210   1.404       .  A
C2209      C2214   1.405       .  A
C2209      H2216   1.084       .  S
C2210      C2211   1.413       .  A
C2211      C2212   1.405       .  A
C2211      C2218   1.508       .  S
C2212      C2213   1.405       .  A
C2212      H2217   1.084       .  S
C2213      C2214   1.417       .  A
C2214      C2215   1.510       .  S
C2215      H2219   1.111       .  S
C2215      H2220   1.110       .  S
C2215      H2221   1.108       .  S
C2218      H2222   1.111       .  S
C2218      H2223   1.109       .  S
C2218      H2224   1.111       .  S
C2225      C2226   1.405       .  A
C2225      C2230   1.399       .  A
C2226      C2227   1.414       .  A
C2227      C2228   1.404       .  A
C2227      C2234   1.504       .  S
C2228      C2229   1.401       .  A
C2228      H2233   1.082       .  S
C2229      C2230   1.408       .  A
C2231      H2235   1.111       .  S
C2231      H2237   1.108       .  S
C2234      H2238   1.110       .  S
C2234      H2239   1.108       .  S
C2234      H2240   1.111       .  S
