geometry optimzed in LAMMPS
_audit_creation_date              2020-12-01 
_audit_creation_method            'lammps2cif' 
_symmetry_space_group_name_H-M    'P1' 
_symmetry_Int_Tables_number       1 
_symmetry_cell_setting            triclinic 
loop_ 
_symmetry_equiv_pos_as_xyz 
  x,y,z 
_cell_length_a                    46.90829964 
_cell_length_b                    46.996770698028506 
_cell_length_c                    26.734740841525035 
_cell_angle_alpha                 90.18119224118821 
_cell_angle_beta                  89.92583123997017 
_cell_angle_gamma                 90.10095096096175 
loop_ 
_atom_site_label 
_atom_site_type_symbol 
_atom_site_fract_x 
_atom_site_fract_y 
_atom_site_fract_z 
_atom_site_charge 
O1          O  0.81086849  0.38114022  0.43873399    -0.81800
O2          O  0.93700251  0.38628489  0.39173666    -0.66500
O3          O  0.86123325  0.35886854  0.41087963    -1.13100
C4          C  0.88700002  0.37128878  0.58301446     1.05100
O5          O  0.95129217  0.35353447  0.44491348    -0.79700
O6          O  0.91957084  0.32504919  0.51524224    -0.67300
Ni7        Ni  0.82996411  0.37599491  0.37697801     1.34900
C8          C  0.89623523  0.31164669  0.51038971     0.83800
O9          O  0.89545192  0.37073801  0.32744243    -0.80300
O10         O  0.84799522  0.37156076  0.31337978    -0.90500
C11         C  0.95682136  0.37150214  0.41072388     0.83400
O12         O  0.84165621  0.41483281  0.37944362    -0.68700
O13         O  0.91258818  0.37283334  0.56678423    -0.88000
C14         C  0.86549919  0.42704911  0.38573763     0.84200
C15         C  0.87379160  0.37082481  0.29832289     1.05800
H16         H  0.89776007  0.39724471  0.47914008     0.37600
O17         O  0.89880463  0.37729891  0.47055220    -1.10700
O18         O  0.87400646  0.32267361  0.49097839    -0.67300
Ni19       Ni  0.86193129  0.36183038  0.48304184     1.26300
O20         O  0.88836533  0.41367786  0.39501847    -0.67600
O21         O  0.86519691  0.36634420  0.55497381    -0.79900
C22         C  0.80404809  0.35916902  0.46297578     0.83600
O23         O  0.82320976  0.34712528  0.48913185    -0.67000
Ni24       Ni  0.93093513  0.36353694  0.50512208     1.27400
Ni25       Ni  0.89832523  0.37389344  0.39922353     1.26100
H26         H  0.86143503  0.33896906  0.40166796     0.38100
O27         O  0.80969907  0.37935510  0.93625359    -0.81800
O28         O  0.93716213  0.38677662  0.89383774    -0.66500
O29         O  0.86130227  0.35866614  0.90985782    -1.13100
C30         C  0.88273040  0.37341161  0.08327412     1.05100
O31         O  0.95130718  0.35694504  0.95267739    -0.79700
O32         O  0.91834644  0.32986484  0.02426993    -0.67300
Ni33       Ni  0.83032786  0.37584901  0.87566157     1.34900
C34         C  0.89624109  0.31471751  0.01695567     0.83800
O35         O  0.89681444  0.36898256  0.82772881    -0.80300
O36         O  0.84965009  0.37324764  0.81298244    -0.90500
C37         C  0.95690194  0.37328982  0.91601075     0.83400
O38         O  0.84098282  0.41458666  0.88341687    -0.68700
O39         O  0.90803995  0.37926039  0.06855011    -0.88000
C40         C  0.86466985  0.42736368  0.88725968     0.84200
C41         C  0.87526640  0.36986818  0.79820259     1.05800
H42         H  0.89441893  0.39917586  0.97767232     0.37600
O43         O  0.89699632  0.37915488  0.97076840    -1.10700
O44         O  0.87535659  0.32342998  0.99045338    -0.67300
Ni45       Ni  0.86080702  0.36172380  0.98174542     1.26300
O46         O  0.88799283  0.41384996  0.89148326    -0.67600
O47         O  0.86241217  0.36606424  0.05372957    -0.79900
C48         C  0.80333947  0.35722330  0.96029994     0.83600
O49         O  0.82274264  0.34517448  0.98594813    -0.67000
Ni50       Ni  0.92864663  0.36835462  0.00969657     1.27400
Ni51       Ni  0.89835270  0.37414371  0.89951188     1.26100
H52         H  0.86170358  0.33877447  0.90058844     0.38100
O53         O  0.80983321  0.13398712  0.19405600    -0.81800
O54         O  0.93469690  0.13340808  0.24325219    -0.66500
O55         O  0.85829793  0.15866824  0.22476620    -1.13100
C56         C  0.88450537  0.15175845  0.05213080     1.05100
O57         O  0.94895796  0.16705638  0.19144983    -0.79700
O58         O  0.91636351  0.19691395  0.12511314    -0.67300
Ni59       Ni  0.82752508  0.13947626  0.25683522     1.34900
C60         C  0.89244218  0.20921575  0.12960686     0.83800
O61         O  0.89208572  0.14628626  0.30780301    -0.80300
O62         O  0.84465619  0.14399240  0.32109786    -0.90500
C63         C  0.95439433  0.14889022  0.22532847     0.83400
O64         O  0.84054338  0.10126072  0.25301132    -0.68700
O65         O  0.91025065  0.15064173  0.06785460    -0.88000
C66         C  0.86464691  0.08998065  0.24526133     0.84200
C67         C  0.87030652  0.14549981  0.33681685     1.05800
H68         H  0.89631033  0.12311284  0.15444934     0.37600
O69         O  0.89672910  0.14290283  0.16431734    -1.10700
O70         O  0.87015642  0.19696486  0.14675526    -0.67300
Ni71       Ni  0.85934976  0.15724787  0.15259323     1.26300
O72         O  0.88688638  0.10465555  0.23719041    -0.67600
O73         O  0.86270565  0.15464194  0.08080511    -0.79900
C74         C  0.80164470  0.15597059  0.17150297     0.83600
O75         O  0.82009877  0.17021248  0.14714490    -0.67000
Ni76       Ni  0.92851825  0.15840781  0.13060648     1.27400
Ni77       Ni  0.89570143  0.14475382  0.23593780     1.26100
H78         H  0.85773811  0.17834904  0.23528436     0.38100
O79         O  0.80956337  0.13644473  0.69665440    -0.81800
O80         O  0.93298638  0.13192298  0.74514154    -0.66500
O81         O  0.85814645  0.16073712  0.72349736    -1.13100
C82         C  0.88277021  0.14451131  0.55226804     1.05100
O83         O  0.94876195  0.16217841  0.68842822    -0.79700
O84         O  0.91715883  0.19066238  0.61862064    -0.67300
Ni85       Ni  0.82669089  0.14499328  0.75866845     1.34900
C86         C  0.89408867  0.20476093  0.62078053     0.83800
O87         O  0.89142331  0.14999991  0.80803367    -0.80300
O88         O  0.84399162  0.15286028  0.82168927    -0.90500
C89         C  0.95332034  0.14583391  0.72548053     0.83400
O90         O  0.83750042  0.10606884  0.76281364    -0.68700
O91         O  0.90836764  0.14242328  0.56829124    -0.88000
C92         C  0.86044275  0.09295561  0.75361876     0.84200
C93         C  0.86976991  0.15279012  0.83703405     1.05800
H94         H  0.89347714  0.11994157  0.65807984     0.37600
O95         O  0.89505284  0.14004527  0.66522140    -1.10700
O96         O  0.87127602  0.19453901  0.63985992    -0.67300
Ni97       Ni  0.85841144  0.15578543  0.65164950     1.26300
O98         O  0.88341130  0.10578182  0.74243455    -0.67600
O99         O  0.86107843  0.14957578  0.58028960    -0.79900
C100        C  0.80128739  0.15765102  0.67210030     0.83600
O101        O  0.81963708  0.17024045  0.64486987    -0.67000
Ni102      Ni  0.92739503  0.15196466  0.62935322     1.27400
Ni103      Ni  0.89463030  0.14513250  0.73639008     1.26100
H104        H  0.85882776  0.18085217  0.73104716     0.38100
O105        O  0.34296044  0.46299735  0.07133512    -0.81800
O106        O  0.33601809  0.33518338  0.10572760    -0.66500
O107        O  0.36681763  0.41042690  0.09045262    -1.13100
C108        C  0.35426291  0.38929821  0.91689749     1.05100
O109        O  0.36901384  0.32438613  0.05151659    -0.79700
O110        O  0.40070144  0.35502441  0.98943671    -0.67300
Ni111      Ni  0.35485030  0.44177508  0.12890856     1.34900
C112        C  0.41400058  0.37798749  0.99821204     0.83800
O113        O  0.35561476  0.37570123  0.17365285    -0.80300
O114        O  0.36589274  0.42216178  0.18815828    -0.90500
C115        C  0.34775009  0.31683157  0.07716407     0.83400
O116        O  0.31650363  0.43071329  0.14215378    -0.68700
O117        O  0.35459686  0.36331818  0.93029850    -0.88000
C118        C  0.30185847  0.40843227  0.13427699     0.84200
C119        C  0.36191360  0.39662420  0.20293118     1.05800
H120        H  0.32628473  0.37570550  0.02179293     0.37600
O121        O  0.34638836  0.37482776  0.02947138    -1.10700
O122        O  0.40130236  0.40068831  0.01143892    -0.67300
Ni123      Ni  0.36180548  0.41166190  0.01922169     1.26300
O124        O  0.31178645  0.38658784  0.11170941    -0.67600
O125        O  0.35687685  0.41040072  0.94719302    -0.79900
C126        C  0.35987180  0.46946866  0.03595999     0.83600
O127        O  0.37442660  0.45034993  0.01401764    -0.67000
Ni128      Ni  0.36162190  0.34422176  0.99168907     1.27400
Ni129      Ni  0.35069002  0.37385041  0.10148448     1.26100
H130        H  0.38695273  0.40862852  0.09728018     0.38100
O131        O  0.34205515  0.46336024  0.56662301    -0.81800
O132        O  0.33605404  0.33409079  0.60786419    -0.66500
O133        O  0.36490929  0.41035138  0.59026561    -1.13100
C134        C  0.35386520  0.38711488  0.41698460     1.05100
O135        O  0.36837804  0.32301481  0.55278905    -0.79700
O136        O  0.39995027  0.35375514  0.49121757    -0.67300
Ni137      Ni  0.35117838  0.44213416  0.62604518     1.34900
C138        C  0.41309131  0.37656069  0.50186589     0.83800
O139        O  0.35569897  0.37570211  0.67411110    -0.80300
O140        O  0.35971392  0.42326743  0.68740173    -0.90500
C141        C  0.34740339  0.31554861  0.57915358     0.83400
O142        O  0.31235911  0.43085853  0.63395729    -0.68700
O143        O  0.35365343  0.36126243  0.43097692    -0.88000
C144        C  0.29928664  0.40714783  0.63239243     0.84200
C145        C  0.35914787  0.39755026  0.70272197     1.05800
H146        H  0.32501718  0.37433561  0.52292948     0.37600
O147        O  0.34516182  0.37358712  0.53032668    -1.10700
O148        O  0.40021148  0.39937815  0.51360077    -0.67300
Ni149      Ni  0.36073301  0.41044731  0.51891513     1.26300
O150        O  0.31078162  0.38465047  0.61468392    -0.67600
O151        O  0.35663439  0.40833637  0.44688257    -0.79900
C152        C  0.36018388  0.46881244  0.53251604     0.83600
O153        O  0.37418409  0.44881314  0.51210713    -0.67000
Ni154      Ni  0.36077882  0.34272017  0.49291052     1.27400
Ni155      Ni  0.34991941  0.37321357  0.60235476     1.26100
H156        H  0.38499111  0.40946439  0.59809060     0.38100
O157        O  0.14963631  0.46262370  0.30534709    -0.81800
O158        O  0.15916860  0.33488256  0.26489165    -0.66500
O159        O  0.12741004  0.40940437  0.28129279    -1.13100
C160        C  0.13285894  0.38495814  0.45450878     1.05100
O161        O  0.12360311  0.32370339  0.31286451    -0.79700
O162        O  0.09014863  0.35245115  0.37440010    -0.67300
Ni163      Ni  0.14016924  0.44135440  0.24558230     1.34900
C164        C  0.07698301  0.37520636  0.36453418     0.83800
O165        O  0.14029838  0.37527217  0.19826687    -0.80300
O166        O  0.13126678  0.42192587  0.18420864    -0.90500
C167        C  0.14584690  0.31618976  0.29000777     0.83400
O168        O  0.17903176  0.43092723  0.23584080    -0.68700
O169        O  0.13390833  0.35928948  0.43890799    -0.88000
C170        C  0.19348327  0.40834203  0.24170291     0.84200
C171        C  0.13433950  0.39617544  0.16932610     1.05800
H172        H  0.16578883  0.37386881  0.35203711     0.37600
O173        O  0.14599430  0.37301897  0.34214622    -1.10700
O174        O  0.08996215  0.39830180  0.35469311    -0.67300
Ni175      Ni  0.12973061  0.40938157  0.35287262     1.26300
O176        O  0.18303201  0.38630335  0.26277706    -0.67600
O177        O  0.13141519  0.40651300  0.42517668    -0.79900
C178        C  0.13226028  0.46755717  0.34104985     0.83600
O179        O  0.11690536  0.44779754  0.35916403    -0.67000
Ni180      Ni  0.12915161  0.34162177  0.37536454     1.27400
Ni181      Ni  0.14396554  0.37310518  0.26999340     1.26100
H182        H  0.10758704  0.40750029  0.27209773     0.38100
O183        O  0.15035513  0.45889561  0.80858438    -0.81800
O184        O  0.15603458  0.33192420  0.76302783    -0.66500
O185        O  0.12603942  0.40678752  0.78396044    -1.13100
C186        C  0.13535485  0.38143079  0.95545182     1.05100
O187        O  0.12170145  0.32032486  0.81387321    -0.79700
O188        O  0.08911696  0.34961990  0.87585587    -0.67300
Ni189      Ni  0.13872369  0.43898919  0.74889827     1.34900
C190        C  0.07690993  0.37327012  0.86883291     0.83800
O191        O  0.13704266  0.37404853  0.69836821    -0.80300
O192        O  0.12747054  0.42087614  0.68809154    -0.90500
C193        C  0.14339047  0.31310707  0.78907281     0.83400
O194        O  0.17704934  0.42773934  0.73521566    -0.68700
O195        O  0.13384680  0.35565744  0.94037955    -0.88000
C196        C  0.19127895  0.40505011  0.74123074     0.84200
C197        C  0.13068610  0.39563177  0.67101461     1.05800
H198        H  0.16518096  0.36941995  0.85096168     0.37600
O199        O  0.14518048  0.36929815  0.84233558    -1.10700
O200        O  0.09068276  0.39606941  0.86062638    -0.67300
Ni201      Ni  0.13043963  0.40610302  0.85503739     1.26300
O202        O  0.18086301  0.38285739  0.76185729    -0.67600
O203        O  0.13458232  0.40308075  0.92650695    -0.79900
C204        C  0.13316981  0.46419316  0.84429166     0.83600
O205        O  0.11830295  0.44449231  0.86346910    -0.67000
Ni206      Ni  0.12806424  0.33814806  0.87636781     1.27400
Ni207      Ni  0.14167746  0.37038200  0.77019956     1.26100
H208        H  0.10595200  0.40538147  0.77638725     0.38100
O209        O  0.17754761  0.63017634  0.44364098    -0.81800
O210        O  0.05371437  0.62478575  0.40352342    -0.66500
O211        O  0.12852524  0.65476735  0.42015827    -1.13100
C212        C  0.10668751  0.64405126  0.59350571     1.05100
O213        O  0.03813739  0.65662266  0.45811181    -0.79700
O214        O  0.07135584  0.68894542  0.51877903    -0.67300
Ni215      Ni  0.15937768  0.63936640  0.38293361     1.34900
C216        C  0.09506497  0.70197623  0.51688305     0.83800
O217        O  0.09415592  0.64166934  0.33730836    -0.80300
O218        O  0.14110009  0.64789821  0.32116877    -0.90500
C219        C  0.03344817  0.63872695  0.42328151     0.83400
O220        O  0.14808539  0.60059500  0.37710794    -0.68700
O221        O  0.08071665  0.64417977  0.57901249    -0.88000
C222        C  0.12576041  0.58706202  0.38912745     0.84200
C223        C  0.11514637  0.64594707  0.30730385     1.05800
H224        H  0.09309454  0.61553843  0.48995151     0.37600
O225        O  0.09223205  0.63546539  0.48130234    -1.10700
O226        O  0.11809010  0.68972475  0.50329189    -0.67300
Ni227      Ni  0.12958493  0.65054437  0.49210720     1.26300
O228        O  0.10367792  0.59939542  0.40594547    -0.67600
O229        O  0.12819183  0.64529830  0.56379217    -0.79900
C230        C  0.18658914  0.65116669  0.46832870     0.83600
O231        O  0.16883362  0.66410995  0.49633225    -0.67000
Ni232      Ni  0.06072737  0.64991453  0.51722984     1.27400
Ni233      Ni  0.09196839  0.63865304  0.40970720     1.26100
H234        H  0.12744375  0.67479503  0.41233418     0.38100
O235        O  0.18162553  0.63001000  0.95202925    -0.81800
O236        O  0.05843225  0.62210594  0.90024181    -0.66500
O237        O  0.13326377  0.65141959  0.92036330    -1.13100
C238        C  0.10605011  0.64138294  0.09259618     1.05100
O239        O  0.04347006  0.65564750  0.95197330    -0.79700
O240        O  0.07366494  0.68507039  0.02353979    -0.67300
Ni241      Ni  0.16520558  0.63457738  0.88826452     1.34900
C242        C  0.09660307  0.69922845  0.01878941     0.83800
O243        O  0.10084079  0.63718015  0.83638946    -0.80300
O244        O  0.14849765  0.63808352  0.82336794    -0.90500
C245        C  0.03842442  0.63741875  0.91775921     0.83400
O246        O  0.15465733  0.59583043  0.89018933    -0.68700
O247        O  0.08076666  0.63762645  0.07582562    -0.88000
C248        C  0.13165169  0.58269805  0.89826215     0.84200
C249        C  0.12280039  0.63755613  0.80763853     1.05800
H250        H  0.09738261  0.61329407  0.98939671     0.37600
O251        O  0.09576692  0.63305141  0.97992209    -1.10700
O252        O  0.11876590  0.68875492  0.99814738    -0.67300
Ni253      Ni  0.13194857  0.64986073  0.99289249     1.26300
O254        O  0.10828192  0.59559107  0.90665612    -0.67600
O255        O  0.12787035  0.64706410  0.06501604    -0.79900
C256        C  0.18901945  0.65280305  0.97314232     0.83600
O257        O  0.17029946  0.66554143  0.99934352    -0.67000
Ni258      Ni  0.06302337  0.64631620  0.01320075     1.27400
Ni259      Ni  0.09694367  0.63519156  0.90832326     1.26100
H260        H  0.13262109  0.67111572  0.91017009     0.38100
O261        O  0.17894985  0.88442188  0.18038226    -0.81800
O262        O  0.05691168  0.88686607  0.23445973    -0.66500
O263        O  0.13220444  0.86006155  0.21338446    -1.13100
C264        C  0.10329538  0.86389198  0.04171947     1.05100
O265        O  0.04209957  0.85148680  0.18656444    -0.79700
O266        O  0.07337093  0.81982930  0.12071084    -0.67300
Ni267      Ni  0.16343538  0.87876942  0.24448232     1.34900
C268        C  0.09757732  0.80794877  0.12326251     0.83800
O269        O  0.09993183  0.87404545  0.29790843    -0.80300
O270        O  0.14764785  0.87350679  0.30962342    -0.90500
C271        C  0.03709299  0.87079768  0.21885428     0.83400
O272        O  0.15086369  0.91720837  0.24396121    -0.68700
O273        O  0.07784202  0.86408378  0.05897497    -0.88000
C274        C  0.12720583  0.92918214  0.23546843     0.84200
C275        C  0.12208736  0.87351105  0.32607228     1.05800
H276        H  0.09311116  0.89495208  0.14332311     0.37600
O277        O  0.09318688  0.87535967  0.15413358    -1.10700
O278        O  0.12015541  0.82109585  0.13654356    -0.67300
Ni279      Ni  0.13041524  0.86097905  0.14089570     1.26300
O280        O  0.10490006  0.91491394  0.22548290    -0.67600
O281        O  0.12586973  0.86305921  0.06899954    -0.79900
C282        C  0.18763883  0.86193895  0.15977757     0.83600
O283        O  0.16966108  0.84800935  0.13387372    -0.67000
Ni284      Ni  0.06102299  0.85833645  0.12362584     1.27400
Ni285      Ni  0.09539481  0.87478818  0.22589119     1.26100
H286        H  0.13244459  0.84044833  0.22411237     0.38100
O287        O  0.18256834  0.87830990  0.69057859    -0.81800
O288        O  0.05587182  0.88747082  0.73061268    -0.66500
O289        O  0.13085884  0.85831174  0.71561066    -1.13100
C290        C  0.11043395  0.87201556  0.54160531     1.05100
O291        O  0.04043759  0.85759235  0.67250689    -0.79700
O292        O  0.07336149  0.82820259  0.60489236    -0.67300
Ni293      Ni  0.16171396  0.87528513  0.75100384     1.34900
C294        C  0.09521729  0.81314871  0.61373899     0.83800
O295        O  0.09497492  0.86925718  0.79693230    -0.80300
O296        O  0.14200040  0.87283078  0.81341314    -0.90500
C297        C  0.03577894  0.87378903  0.70996353     0.83400
O298        O  0.15170822  0.91444145  0.74503612    -0.68700
O299        O  0.08467920  0.87625701  0.55558198    -0.88000
C300        C  0.12796215  0.92702876  0.74052073     0.84200
C301        C  0.11605802  0.87081992  0.82727756     1.05800
H302        H  0.09803740  0.89865467  0.64682777     0.37600
O303        O  0.09550660  0.87866574  0.65397093    -1.10700
O304        O  0.11736984  0.82291345  0.63551890    -0.67300
Ni305      Ni  0.13170882  0.86126510  0.64362753     1.26300
O306        O  0.10496547  0.91342244  0.73300845    -0.67600
O307        O  0.13064781  0.86549590  0.57172372    -0.79900
C308        C  0.18853308  0.85577786  0.66700129     0.83600
O309        O  0.16942116  0.84456275  0.63959508    -0.67000
Ni310      Ni  0.06378423  0.86722892  0.61518336     1.27400
Ni311      Ni  0.09405270  0.87400520  0.72516830     1.26100
H312        H  0.13015708  0.83845288  0.72477619     0.38100
O313        O  0.64488642  0.55424222  0.08379104    -0.81800
O314        O  0.65231530  0.68234092  0.12937824    -0.66500
O315        O  0.62154042  0.60709335  0.11127636    -1.13100
C316        C  0.62567435  0.63159777  0.93844868     1.05100
O317        O  0.61771104  0.69426920  0.08009983    -0.79700
O318        O  0.58298000  0.66450588  0.02406200    -0.67300
Ni319      Ni  0.63599042  0.57487524  0.14466741     1.34900
C320        C  0.57055771  0.64087694  0.03045457     0.83800
O321        O  0.63364267  0.64057367  0.19549655    -0.80300
O322        O  0.62782075  0.59312110  0.20714274    -0.90500
C323        C  0.64021333  0.70112499  0.10272090     0.83400
O324        O  0.67469457  0.58637940  0.15311851    -0.68700
O325        O  0.62434297  0.65743721  0.95339487    -0.88000
C326        C  0.68770505  0.61007822  0.15057785     0.84200
C327        C  0.62958231  0.61867620  0.22349302     1.05800
H328        H  0.65931164  0.64437815  0.04122081     0.37600
O329        O  0.63948362  0.64458346  0.05110567    -1.10700
O330        O  0.58432366  0.61796357  0.03684070    -0.67300
Ni331      Ni  0.62412588  0.60771716  0.03992280     1.26300
O332        O  0.67654116  0.63203546  0.13076281    -0.67600
O333        O  0.62655443  0.61043183  0.96833567    -0.79900
C334        C  0.62669817  0.54941096  0.04943838     0.83600
O335        O  0.61135730  0.56934051  0.03252995    -0.67000
Ni336      Ni  0.62164776  0.67562797  0.01773371     1.27400
Ni337      Ni  0.63726681  0.64387366  0.12352251     1.26100
H338        H  0.60165569  0.60809953  0.12059308     0.38100
O339        O  0.64900500  0.55134103  0.58658485    -0.81800
O340        O  0.65435513  0.67938732  0.63016388    -0.66500
O341        O  0.62445326  0.60393918  0.60985042    -1.13100
C342        C  0.63527686  0.62904236  0.43814098     1.05100
O343        O  0.62038025  0.69033165  0.57876969    -0.79700
O344        O  0.58881586  0.66084476  0.51518249    -0.67300
Ni345      Ni  0.63719356  0.57199373  0.64576794     1.34900
C346        C  0.57608802  0.63728911  0.52080558     0.83800
O347        O  0.63444897  0.63754761  0.69518723    -0.80300
O348        O  0.62602829  0.59048501  0.70658473    -0.90500
C349        C  0.64196211  0.69797982  0.60334690     0.83400
O350        O  0.67543710  0.58363269  0.65914152    -0.68700
O351        O  0.63410331  0.65478431  0.45335605    -0.88000
C352        C  0.68963953  0.60641275  0.65349478     0.84200
C353        C  0.62830474  0.61602269  0.72290783     1.05800
H354        H  0.66410124  0.64106819  0.54327464     0.37600
O355        O  0.64402152  0.64127211  0.55140330    -1.10700
O356        O  0.58932491  0.61448498  0.53166091    -0.67300
Ni357      Ni  0.62927737  0.60436499  0.53866879     1.26300
O358        O  0.67914606  0.62849698  0.63277498    -0.67600
O359        O  0.63398499  0.60733392  0.46705429    -0.79900
C360        C  0.63308686  0.54599705  0.54906462     0.83600
O361        O  0.61772081  0.56549976  0.53028530    -0.67000
Ni362      Ni  0.62761566  0.67240988  0.51676043     1.27400
Ni363      Ni  0.63994812  0.64066644  0.62340457     1.26100
H364        H  0.60430447  0.60519892  0.61700391     0.38100
O365        O  0.83649002  0.55513529  0.32028271    -0.81800
O366        O  0.83867936  0.68282975  0.27427948    -0.66500
O367        O  0.86167553  0.60513516  0.29239894    -1.13100
C368        C  0.85448630  0.63125774  0.46579806     1.05100
O369        O  0.87342726  0.69036926  0.32610527    -0.79700
O370        O  0.90171307  0.66006950  0.39180816    -0.67300
Ni371      Ni  0.84439746  0.57438101  0.25872032     1.34900
C372        C  0.91363926  0.63705286  0.37889528     0.83800
O373        O  0.85367984  0.63985560  0.20858792    -0.80300
O374        O  0.85160648  0.59221173  0.19564114    -0.90500
C375        C  0.85314353  0.70013273  0.30072419     0.83400
O376        O  0.80624992  0.58790557  0.25612658    -0.68700
O377        O  0.85443127  0.65698496  0.45073492    -0.88000
C378        C  0.79523961  0.61252110  0.25781314     0.84200
C379        C  0.85343900  0.61782183  0.17993032     1.05800
H380        H  0.82565909  0.64377511  0.36121160     0.37600
O381        O  0.84567620  0.64341297  0.35261421    -1.10700
O382        O  0.89959603  0.61516317  0.36568299    -0.67300
Ni383      Ni  0.85941315  0.60603197  0.36435716     1.26300
O384        O  0.80908355  0.63470190  0.27095466    -0.67600
O385        O  0.85724030  0.60956895  0.43674114    -0.79900
C386        C  0.85659272  0.54777631  0.34917339     0.83600
O387        O  0.87100478  0.56696472  0.37129906    -0.67000
Ni388      Ni  0.86357771  0.67368039  0.38782048     1.27400
Ni389      Ni  0.84925314  0.64303762  0.28035064     1.26100
H390        H  0.88138247  0.60443188  0.28289899     0.38100
O391        O  0.84223590  0.55505124  0.81410930    -0.81800
O392        O  0.83460565  0.68257818  0.77916047    -0.66500
O393        O  0.86624395  0.60774028  0.79252221    -1.13100
C394        C  0.86417871  0.63059366  0.96571631     1.05100
O395        O  0.87053891  0.69482788  0.82617651    -0.79700
O396        O  0.90694681  0.66290864  0.87748254    -0.67300
Ni397      Ni  0.85292069  0.57632874  0.75567232     1.34900
C398        C  0.91849862  0.63877609  0.87174408     0.83800
O399        O  0.85170705  0.64200669  0.70993145    -0.80300
O400        O  0.86259429  0.59579769  0.69538032    -0.90500
C401        C  0.84750980  0.70145634  0.80480752     0.83400
O402        O  0.81449244  0.58784459  0.74603664    -0.68700
O403        O  0.86712072  0.65613029  0.95065839    -0.88000
C404        C  0.79981404  0.60987229  0.75559379     0.84200
C405        C  0.85820780  0.62124939  0.68056619     1.05800
H406        H  0.82967391  0.64463949  0.86609217     0.37600
O407        O  0.84926388  0.64439582  0.85484383    -1.10700
O408        O  0.90392701  0.61602666  0.86762310    -0.67300
Ni409      Ni  0.86364189  0.60702361  0.86414123     1.26300
O410        O  0.81040792  0.63130811  0.77849442    -0.67600
O411        O  0.86118055  0.60918467  0.93623351    -0.79900
C412        C  0.85911258  0.54877668  0.84957292     0.83600
O413        O  0.87479324  0.56783498  0.86930808    -0.67000
Ni414      Ni  0.86857475  0.67485915  0.88744385     1.27400
Ni415      Ni  0.84977152  0.64427817  0.78249511     1.26100
H416        H  0.88610450  0.60956021  0.78347864     0.38100
O417        O  0.64888966  0.95913810  0.05695256    -0.81800
O418        O  0.65921371  0.83147931  0.01222713    -0.66500
O419        O  0.62674807  0.90597582  0.03019019    -1.13100
C420        C  0.62700292  0.87833118  0.20109341     1.05100
O421        O  0.62103814  0.82059412  0.05325623    -0.79700
O422        O  0.58495923  0.84884393  0.10948456    -0.67300
Ni423      Ni  0.63988699  0.93849488  0.99634780     1.34900
C424        C  0.57373813  0.87310223  0.10524148     0.83800
O425        O  0.64291155  0.87361694  0.94591981    -0.80300
O426        O  0.63210307  0.91995763  0.93397568    -0.90500
C427        C  0.64454400  0.81280761  0.03511934     0.83400
O428        O  0.67852780  0.92782457  0.98806810    -0.68700
O429        O  0.62430488  0.85304623  0.18378462    -0.88000
C430        C  0.69335816  0.90588158  0.99662562     0.84200
C431        C  0.63756946  0.89493360  0.91753718     1.05800
H432        H  0.66253509  0.86731634  0.10218103     0.37600
O433        O  0.64316080  0.86795595  0.08998401    -1.10700
O434        O  0.58834480  0.89581936  0.10310493    -0.67300
Ni435      Ni  0.62849607  0.90482697  0.10187625     1.26300
O436        O  0.68292853  0.88344955  0.01660256    -0.67600
O437        O  0.63007090  0.90046619  0.17353578    -0.79900
C438        C  0.63127863  0.96369735  0.09233961     0.83600
O439        O  0.61659028  0.94349617  0.11049542    -0.67000
Ni440      Ni  0.62307548  0.83669763  0.11801349     1.27400
Ni441      Ni  0.64375744  0.86978796  0.01786114     1.26100
H442        H  0.60702835  0.90409296  0.02032767     0.38100
O443        O  0.64977721  0.96076866  0.55103223    -0.81800
O444        O  0.65589900  0.82936562  0.51367966    -0.66500
O445        O  0.62743252  0.90614440  0.52972110    -1.13100
C446        C  0.63629551  0.88268320  0.70239260     1.05100
O447        O  0.62076271  0.82103159  0.56345207    -0.79700
O448        O  0.58956570  0.85117740  0.62477373    -0.67300
Ni449      Ni  0.64112627  0.93751039  0.49263009     1.34900
C450        C  0.57766324  0.87467045  0.61558692     0.83800
O451        O  0.63664017  0.87013662  0.44682733    -0.80300
O452        O  0.63315161  0.91722231  0.43162337    -0.90500
C453        C  0.64257696  0.81185399  0.54147861     0.83400
O454        O  0.67999845  0.92628841  0.48698064    -0.68700
O455        O  0.63446407  0.85679965  0.68820689    -0.88000
C456        C  0.69326796  0.90291112  0.49170058     0.84200
C457        C  0.63337247  0.89122948  0.41706698     1.05800
H458        H  0.66599529  0.86905798  0.59860466     0.37600
O459        O  0.64597729  0.86922016  0.59011312    -1.10700
O460        O  0.59170646  0.89719755  0.60652927    -0.67300
Ni461      Ni  0.63176965  0.90648486  0.60108516     1.26300
O462        O  0.68152446  0.88016097  0.50789466    -0.67600
O463        O  0.63607481  0.90403880  0.67265446    -0.79900
C464        C  0.63354009  0.96550660  0.58853438     0.83600
O465        O  0.61987162  0.94525496  0.60881279    -0.67000
Ni466      Ni  0.62802566  0.83889294  0.62523856     1.27400
Ni467      Ni  0.64215941  0.86863488  0.51826266     1.26100
H468        H  0.60733651  0.90518190  0.52203609     0.38100
O469        O  0.84275763  0.96457919  0.31712334    -0.81800
O470        O  0.84239847  0.83669009  0.36696602    -0.66500
O471        O  0.86758878  0.91340662  0.34538598    -1.13100
C472        C  0.85777757  0.88636173  0.17309057     1.05100
O473        O  0.87550184  0.82703087  0.31287702    -0.79700
O474        O  0.90408062  0.85617144  0.24575257    -0.67300
Ni475      Ni  0.85175861  0.94510272  0.37851196     1.34900
C476        C  0.91694447  0.87900468  0.25687870     0.83800
O477        O  0.86028783  0.87987161  0.43038569    -0.80300
O478        O  0.85996143  0.92776930  0.44155933    -0.90500
C479        C  0.85515500  0.81853276  0.33965245     0.83400
O480        O  0.81335564  0.93237749  0.38536708    -0.68700
O481        O  0.85689581  0.86072371  0.18850990    -0.88000
C482        C  0.80190308  0.90786692  0.38670268     0.84200
C483        C  0.86137695  0.90228778  0.45805471     1.05800
H484        H  0.82921374  0.87518161  0.27988445     0.37600
O485        O  0.84937999  0.87495359  0.28722571    -1.10700
O486        O  0.90391860  0.90124534  0.27116903    -0.67300
Ni487      Ni  0.86420289  0.91172354  0.27408499     1.26300
O488        O  0.81476845  0.88556092  0.37149032    -0.67600
O489        O  0.86110054  0.90796250  0.20203548    -0.79900
C490        C  0.86105664  0.96980611  0.28315294     0.83600
O491        O  0.87660874  0.95011761  0.26556929    -0.67000
Ni492      Ni  0.86564725  0.84391661  0.25142518     1.27400
Ni493      Ni  0.85435309  0.87600316  0.35918222     1.26100
H494        H  0.88758953  0.91372655  0.35395487     0.38100
O495        O  0.84077258  0.96486061  0.82450705    -0.81800
O496        O  0.83597805  0.83778394  0.86176296    -0.66500
O497        O  0.86624209  0.91314914  0.84620795    -1.13100
C498        C  0.86018386  0.89071456  0.67286477     1.05100
O499        O  0.86979035  0.82587834  0.81015210    -0.79700
O500        O  0.90375037  0.85738052  0.75428160    -0.67300
Ni501      Ni  0.85240421  0.94436577  0.88324334     1.34900
C502        C  0.91623810  0.88104952  0.76019343     0.83800
O503        O  0.85470464  0.87866069  0.92911542    -0.80300
O504        O  0.86322163  0.92545599  0.94348239    -0.90500
C505        C  0.84780546  0.81903944  0.83442554     0.83400
O506        O  0.81439617  0.93192000  0.89534016    -0.68700
O507        O  0.86169546  0.86491532  0.68711097    -0.88000
C508        C  0.80067293  0.90897684  0.88807135     0.84200
C509        C  0.86056814  0.89972957  0.95829577     1.05800
H510        H  0.82799194  0.87670450  0.77556724     0.37600
O511        O  0.84790389  0.87654714  0.78478574    -1.10700
O512        O  0.90264945  0.90395927  0.76908081    -0.67300
Ni513      Ni  0.86259327  0.91385710  0.77484983     1.26300
O514        O  0.81140891  0.88806876  0.86431330    -0.67600
O515        O  0.85922611  0.91207656  0.70281646    -0.79900
C516        C  0.85860533  0.97187301  0.79088049     0.83600
O517        O  0.87405514  0.95304434  0.76991486    -0.67000
Ni518      Ni  0.86516595  0.84593369  0.74961116     1.27400
Ni519      Ni  0.85068719  0.87630614  0.85697349     1.26100
H520        H  0.88627098  0.91194244  0.85430422     0.38100
O521        O  0.67824771  0.12813509  0.20378738    -0.81800
O522        O  0.55467576  0.12192271  0.15623761    -0.66500
O523        O  0.62950054  0.15073634  0.17573216    -1.13100
C524        C  0.60411494  0.14020958  0.34850901     1.05100
O525        O  0.53950688  0.15419586  0.21037463    -0.79700
O526        O  0.57094766  0.18392360  0.27964876    -0.67300
Ni527      Ni  0.66095335  0.13477610  0.14123592     1.34900
C528        C  0.59401517  0.19789808  0.27466324     0.83800
O529        O  0.59592560  0.13891160  0.09180322    -0.80300
O530        O  0.64342313  0.14088966  0.07767532    -0.90500
C531        C  0.53487521  0.13740614  0.17373642     0.83400
O532        O  0.65028351  0.09584136  0.13957240    -0.68700
O533        O  0.57873881  0.13654397  0.33233901    -0.88000
C534        C  0.62748335  0.08245210  0.14862627     0.84200
C535        C  0.61759126  0.14091862  0.06257056     1.05800
H536        H  0.59400923  0.11163709  0.24394111     0.37600
O537        O  0.59253726  0.13155638  0.23548394    -1.10700
O538        O  0.61620403  0.18691113  0.25493150    -0.67300
Ni539      Ni  0.62905681  0.14792976  0.24798068     1.26300
O540        O  0.60430851  0.09519525  0.15937237    -0.67600
O541        O  0.62590547  0.14443340  0.32012935    -0.79900
C542        C  0.68621842  0.15018956  0.22671846     0.83600
O543        O  0.66777686  0.16286110  0.25373978    -0.67000
Ni544      Ni  0.56026378  0.14496799  0.27039459     1.27400
Ni545      Ni  0.59305007  0.13491906  0.16390372     1.26100
H546        H  0.62873791  0.17061953  0.16673885     0.38100
O547        O  0.67916334  0.13175512  0.70362134    -0.81800
O548        O  0.55548464  0.12158687  0.65853628    -0.66500
O549        O  0.62954412  0.15358173  0.67550851    -1.13100
C550        C  0.60385858  0.15165684  0.84801834     1.05100
O551        O  0.53897909  0.15724304  0.70472356    -0.79700
O552        O  0.57123173  0.19370234  0.76185473    -0.67300
Ni553      Ni  0.66159915  0.13856403  0.64149358     1.34900
C554        C  0.59557821  0.20555211  0.76178907     0.83800
O555        O  0.59746975  0.13571777  0.59249210    -0.80300
O556        O  0.64416419  0.14455147  0.57831487    -0.90500
C557        C  0.53495715  0.13732651  0.67290641     0.83400
O558        O  0.65125514  0.09956957  0.63814766    -0.68700
O559        O  0.57827177  0.15301474  0.83156988    -0.88000
C560        C  0.62981844  0.08483587  0.65039446     0.84200
C561        C  0.61887169  0.13962425  0.56317739     1.05800
H562        H  0.59218571  0.11744738  0.74882953     0.37600
O563        O  0.59201831  0.13680753  0.73675648    -1.10700
O564        O  0.61846495  0.19191367  0.75299697    -0.67300
Ni565      Ni  0.62914765  0.15232984  0.74780200     1.26300
O566        O  0.60687314  0.09642139  0.66650143    -0.67600
O567        O  0.62596357  0.15014531  0.81968256    -0.79900
C568        C  0.68665638  0.15375626  0.72713939     0.83600
O569        O  0.66794177  0.16649847  0.75320885    -0.67000
Ni570      Ni  0.56002626  0.15469191  0.76696711     1.27400
Ni571      Ni  0.59367377  0.13596722  0.66490154     1.26100
H572        H  0.62781459  0.17320814  0.66529734     0.38100
O573        O  0.67998641  0.37964905  0.43980322    -0.81800
O574        O  0.55410446  0.38755062  0.48211686    -0.66500
O575        O  0.62951206  0.35801709  0.46667465    -1.13100
C576        C  0.60758898  0.36945229  0.29324403     1.05100
O577        O  0.53977177  0.35494153  0.42789916    -0.79700
O578        O  0.57204799  0.32424001  0.36185966    -0.67300
Ni579      Ni  0.66083415  0.37431117  0.50112651     1.34900
C580        C  0.59472496  0.31018363  0.36933567     0.83800
O581        O  0.59487176  0.37160378  0.54895346    -0.80300
O582        O  0.64214384  0.36990151  0.56380940    -0.90500
C583        C  0.53418483  0.37314659  0.46185324     0.83400
O584        O  0.65049793  0.41327633  0.49896207    -0.68700
O585        O  0.58163995  0.37134297  0.30767325    -0.88000
C586        C  0.62758355  0.42677417  0.49135560     0.84200
C587        C  0.61629399  0.37041894  0.57874229     1.05800
H588        H  0.59525978  0.39683717  0.39636403     0.37600
O589        O  0.59354438  0.37697576  0.40513883    -1.10700
O590        O  0.61731250  0.32142835  0.38726430    -0.67300
Ni591      Ni  0.63026509  0.36044358  0.39464100     1.26300
O592        O  0.60429429  0.41400821  0.48138293    -0.67600
O593        O  0.62863890  0.36464264  0.32275218    -0.79900
C594        C  0.68754603  0.35746278  0.41698595     0.83600
O595        O  0.66884193  0.34489842  0.39041044    -0.67000
Ni596      Ni  0.56178407  0.36338108  0.36871875     1.27400
Ni597      Ni  0.59283270  0.37429355  0.47675459     1.26100
H598        H  0.62849704  0.33821032  0.47612841     0.38100
O599        O  0.68005169  0.38573905  0.93387043    -0.81800
O600        O  0.55482271  0.38736692  0.98652277    -0.66500
O601        O  0.63155730  0.36332926  0.96645437    -1.13100
C602        C  0.60442191  0.37489516  0.79459326     1.05100
O603        O  0.54260580  0.35451115  0.93141693    -0.79700
O604        O  0.57364538  0.33020095  0.85567173    -0.67300
Ni605      Ni  0.66250638  0.38268024  0.99729183     1.34900
C606        C  0.59604762  0.31571346  0.86295510     0.83800
O607        O  0.59785090  0.37411732  0.05055480    -0.80300
O608        O  0.64527916  0.38021069  0.06210111    -0.90500
C609        C  0.53592714  0.37154671  0.96652627     0.83400
O610        O  0.64997447  0.42087755  0.99032855    -0.68700
O611        O  0.57944877  0.38008481  0.81170049    -0.88000
C612        C  0.62554651  0.43211834  0.98756295     0.84200
C613        C  0.61990575  0.37692021  0.07855696     1.05800
H614        H  0.59514828  0.40068229  0.89938169     0.37600
O615        O  0.59360742  0.38071760  0.90743248    -1.10700
O616        O  0.61680663  0.32552159  0.88876556    -0.67300
Ni617      Ni  0.62995296  0.36470844  0.89408894     1.26300
O618        O  0.60281209  0.41741360  0.98398331    -0.67600
O619        O  0.62573675  0.36760973  0.82205908    -0.79900
C620        C  0.68733521  0.36274008  0.91311004     0.83600
O621        O  0.66850105  0.34970145  0.88750320    -0.67000
Ni622      Ni  0.56157399  0.36773810  0.87208164     1.27400
Ni623      Ni  0.59421364  0.37714052  0.97882212     1.26100
H624        H  0.63230461  0.34366556  0.97680944     0.38100
O625        O  0.31192088  0.63260164  0.44337404    -0.81800
O626        O  0.43666348  0.62992038  0.48524272    -0.66500
O627        O  0.36109947  0.65758413  0.46854729    -1.13100
C628        C  0.38430296  0.64718834  0.29547011     1.05100
O629        O  0.45186238  0.66274169  0.43219818    -0.79700
O630        O  0.41781323  0.69363373  0.36813809    -0.67300
Ni631      Ni  0.33033135  0.64091472  0.50442023     1.34900
C632        C  0.39368440  0.70580374  0.37073609     0.83800
O633        O  0.39551056  0.64495180  0.55142071    -0.80300
O634        O  0.34827416  0.64842546  0.56680912    -0.90500
C635        C  0.45667735  0.64493613  0.46715617     0.83400
O636        O  0.34244183  0.60233884  0.50647691    -0.68700
O637        O  0.41030015  0.64769458  0.31006173    -0.88000
C638        C  0.36493445  0.58943721  0.49350812     0.84200
C639        C  0.37416076  0.64784374  0.58113546     1.05800
H640        H  0.39781599  0.61994746  0.39817242     0.37600
O641        O  0.39829821  0.63982738  0.40745224    -1.10700
O642        O  0.37120929  0.69345553  0.38666439    -0.67300
Ni643      Ni  0.36072135  0.65400995  0.39652952     1.26300
O644        O  0.38751846  0.60260118  0.48092390    -0.67600
O645        O  0.36273978  0.64936682  0.32486894    -0.79900
C646        C  0.30335740  0.65356634  0.41844949     0.83600
O647        O  0.32145005  0.66686978  0.39181104    -0.67000
Ni648      Ni  0.42975857  0.65493970  0.37221817     1.27400
Ni649      Ni  0.39808031  0.64244475  0.47904454     1.26100
H650        H  0.36160597  0.67756069  0.47720228     0.38100
O651        O  0.30981210  0.63467579  0.93955327    -0.81800
O652        O  0.43278107  0.62805850  0.98862629    -0.66500
O653        O  0.35887455  0.65789938  0.96685687    -1.13100
C654        C  0.38465517  0.64268851  0.79547861     1.05100
O655        O  0.44951236  0.65906323  0.93371378    -0.79700
O656        O  0.41888224  0.68827220  0.86288928    -0.67300
Ni657      Ni  0.32702144  0.64269173  0.00182939     1.34900
C658        C  0.39578185  0.70224529  0.86579817     0.83800
O659        O  0.39151803  0.64565664  0.05172543    -0.80300
O660        O  0.34419326  0.64987499  0.06546726    -0.90500
C661        C  0.45305964  0.64304492  0.97163103     0.83400
O662        O  0.33737302  0.60369123  0.00559336    -0.68700
O663        O  0.41023071  0.64039360  0.81155739    -0.88000
C664        C  0.35989908  0.59008203  0.99571131     0.84200
C665        C  0.36994827  0.64895847  0.08077007     1.05800
H666        H  0.39438402  0.61732002  0.90064035     0.37600
O667        O  0.39601757  0.63733612  0.90850097    -1.10700
O668        O  0.37282268  0.69199317  0.88420416    -0.67300
Ni669      Ni  0.35969456  0.65334701  0.89485015     1.26300
O670        O  0.38299528  0.60250670  0.98395350    -0.67600
O671        O  0.36292669  0.64771125  0.82348109    -0.79900
C672        C  0.30245246  0.65593107  0.91416531     0.83600
O673        O  0.32131046  0.66815590  0.88755044    -0.67000
Ni674      Ni  0.42874011  0.64939657  0.87356893     1.27400
Ni675      Ni  0.39493987  0.64166543  0.97979091     1.26100
H676        H  0.35993846  0.67795330  0.97475684     0.38100
O677        O  0.31021054  0.88021850  0.18344403    -0.81800
O678        O  0.43456345  0.88353678  0.13104272    -0.66500
O679        O  0.35941381  0.85640699  0.15475695    -1.13100
C680        C  0.38777254  0.86942722  0.32548971     1.05100
O681        O  0.44984188  0.85139459  0.18453105    -0.79700
O682        O  0.41881071  0.82331350  0.25597131    -0.67300
Ni683      Ni  0.32785238  0.87301706  0.12102383     1.34900
C684        C  0.39503430  0.81034003  0.25523046     0.83800
O685        O  0.39229290  0.86689776  0.06919003    -0.80300
O686        O  0.34466998  0.86640032  0.05680420    -0.90500
C687        C  0.45469258  0.86928676  0.15000316     0.83400
O688        O  0.33988291  0.91178721  0.11934505    -0.68700
O689        O  0.41315280  0.87109099  0.30825267    -0.88000
C690        C  0.36373903  0.92410358  0.12483855     0.84200
C691        C  0.37029939  0.86546425  0.04083346     1.05800
H692        H  0.39721626  0.89550058  0.21991974     0.37600
O693        O  0.39793382  0.87543669  0.21202640    -1.10700
O694        O  0.37263201  0.82130112  0.23637482    -0.67300
Ni695      Ni  0.36114984  0.86050860  0.22675361     1.26300
O696        O  0.38641947  0.91082723  0.13557514    -0.67600
O697        O  0.36546809  0.86548890  0.29829179    -0.79900
C698        C  0.30326734  0.85898127  0.20950505     0.83600
O699        O  0.32244156  0.84670563  0.23516797    -0.67000
Ni700      Ni  0.43042734  0.86165497  0.24549408     1.27400
Ni701      Ni  0.39625282  0.87110697  0.14078271     1.26100
H702        H  0.35946120  0.83636250  0.14658170     0.38100
O703        O  0.31173510  0.87409151  0.67524076    -0.81800
O704        O  0.43757111  0.88478987  0.63735047    -0.66500
O705        O  0.36316815  0.85344888  0.65230139    -1.13100
C706        C  0.38364174  0.86812682  0.82605151     1.05100
O707        O  0.45262979  0.85370251  0.69314604    -0.79700
O708        O  0.42041619  0.82345186  0.75992932    -0.67300
Ni709      Ni  0.33202128  0.86826123  0.61522654     1.34900
C710        C  0.39780102  0.80881795  0.75484134     0.83800
O711        O  0.39856272  0.86595446  0.57038688    -0.80300
O712        O  0.35152013  0.86292977  0.55351114    -0.90500
C713        C  0.45769879  0.87127845  0.65813199     0.83400
O714        O  0.34145019  0.90765119  0.61490844    -0.68700
O715        O  0.40954024  0.87080506  0.81181092    -0.88000
C716        C  0.36422336  0.92132839  0.62333033     0.84200
C717        C  0.37756033  0.86323418  0.53999152     1.05800
H718        H  0.39594603  0.89449230  0.72170169     0.37600
O719        O  0.39816081  0.87452487  0.71392112    -1.10700
O720        O  0.37537117  0.81888711  0.73462282    -0.67300
Ni721      Ni  0.36178352  0.85735649  0.72434534     1.26300
O722        O  0.38734438  0.90941023  0.63621455    -0.67600
O723        O  0.36280256  0.86250346  0.79634474    -0.79900
C724        C  0.30496541  0.85225621  0.69978578     0.83600
O725        O  0.32363053  0.84119952  0.72820592    -0.67000
Ni726      Ni  0.42996522  0.86257081  0.75142064     1.27400
Ni727      Ni  0.39954384  0.87031306  0.64255031     1.26100
H728        H  0.36469914  0.83347590  0.64403926     0.38100
O729        O  0.33893633  0.05424247  0.06610691    -0.81800
O730        O  0.33589652  0.17977621  0.02107684    -0.66500
O731        O  0.36496121  0.10410252  0.04015040    -1.13100
C732        C  0.35884878  0.12916468  0.21256448     1.05100
O733        O  0.37020284  0.19147721  0.07164659    -0.79700
O734        O  0.40400389  0.16027262  0.12660476    -0.67300
Ni735      Ni  0.35055843  0.07232923  0.00547002     1.34900
C736        C  0.41576271  0.13619353  0.12195139     0.83800
O737        O  0.35408578  0.13702260  0.95522229    -0.80300
O738        O  0.36125724  0.08954978  0.94394861    -0.90500
C739        C  0.34807416  0.19851218  0.04821329     0.83400
O740        O  0.31261597  0.08454351  0.99290107    -0.68700
O741        O  0.36208328  0.15457120  0.19690879    -0.88000
C742        C  0.29918824  0.10767876  0.99890421     0.84200
C743        C  0.35880248  0.11495407  0.92761026     1.05800
H744        H  0.32727044  0.14230866  0.10913008     0.37600
O745        O  0.34716777  0.14186474  0.09973297    -1.10700
O746        O  0.40131242  0.11347975  0.11713851    -0.67300
Ni747      Ni  0.36115622  0.10447778  0.11174970     1.26300
O748        O  0.31032320  0.12951088  0.01973335    -0.67600
O749        O  0.35743476  0.10749958  0.18343419    -0.79900
C750        C  0.35770086  0.04635718  0.09725312     0.83600
O751        O  0.37247859  0.06533034  0.11909975    -0.67000
Ni752      Ni  0.36571302  0.17249866  0.13318151     1.27400
Ni753      Ni  0.34993528  0.14092114  0.02735356     1.26100
H754        H  0.38500920  0.10491622  0.03192227     0.38100
O755        O  0.33803171  0.05118330  0.56126023    -0.81800
O756        O  0.33365993  0.17789183  0.52491915    -0.66500
O757        O  0.36390828  0.10236986  0.54009143    -1.13100
C758        C  0.35853629  0.12485995  0.71285485     1.05100
O759        O  0.36872632  0.18934291  0.57431584    -0.79700
O760        O  0.40345554  0.15701248  0.62820718    -0.67300
Ni761      Ni  0.35060079  0.07114000  0.50279532     1.34900
C762        C  0.41483178  0.13263118  0.62491012     0.83800
O763        O  0.35185542  0.13662932  0.45689531    -0.80300
O764        O  0.36210416  0.09008650  0.44299552    -0.90500
C765        C  0.34639371  0.19657906  0.55144251     0.83400
O766        O  0.31272973  0.08316935  0.48938394    -0.68700
O767        O  0.36203649  0.15037380  0.69797409    -0.88000
C768        C  0.29851805  0.10571778  0.49688118     0.84200
C769        C  0.35812689  0.11559799  0.42791722     1.05800
H770        H  0.32615567  0.13952420  0.61124208     0.37600
O771        O  0.34598420  0.13905613  0.60138236    -1.10700
O772        O  0.40013982  0.11012534  0.61836111    -0.67300
Ni773      Ni  0.35981694  0.10145232  0.61153811     1.26300
O774        O  0.30877522  0.12673030  0.52153044    -0.67600
O775        O  0.35589438  0.10342048  0.68338701    -0.79900
C776        C  0.35560017  0.04333934  0.59456320     0.83600
O777        O  0.37058579  0.06202910  0.61691469    -0.67000
Ni778      Ni  0.36498351  0.16925907  0.63519925     1.27400
Ni779      Ni  0.34819147  0.13912112  0.52912867     1.26100
H780        H  0.38397781  0.10382540  0.53236391     0.38100
O781        O  0.14626033  0.05253668  0.32704388    -0.81800
O782        O  0.15505858  0.18251205  0.36497140    -0.66500
O783        O  0.12471954  0.10688991  0.35044005    -1.13100
C784        C  0.13381596  0.12863700  0.17668466     1.05100
O785        O  0.12116471  0.19312964  0.31323032    -0.79700
O786        O  0.08886584  0.16304074  0.25161888    -0.67300
Ni787      Ni  0.13890740  0.07533612  0.38617129     1.34900
C788        C  0.07555527  0.14032764  0.26189943     0.83800
O789        O  0.13569486  0.14277689  0.43230029    -0.80300
O790        O  0.13256073  0.09550034  0.44761321    -0.90500
C791        C  0.14281567  0.20083368  0.33760289     0.83400
O792        O  0.17809309  0.08582368  0.39023124    -0.68700
O793        O  0.13415189  0.15465026  0.19054546    -0.88000
C794        C  0.19116823  0.10943809  0.38744152     0.84200
C795        C  0.13332618  0.12150015  0.46192285     1.05800
H796        H  0.16401814  0.14189595  0.28036762     0.37600
O797        O  0.14402138  0.14290245  0.28894548    -1.10700
O798        O  0.08835055  0.11773500  0.27498438    -0.67300
Ni799      Ni  0.12790258  0.10629869  0.27908068     1.26300
O800        O  0.17959374  0.13218165  0.37129713    -0.67600
O801        O  0.13139400  0.10783463  0.20718965    -0.79900
C802        C  0.12936818  0.04812232  0.29048895     0.83600
O803        O  0.11426989  0.06809684  0.27301221    -0.67000
Ni804      Ni  0.12802071  0.17368686  0.25253592     1.27400
Ni805      Ni  0.14044129  0.14394981  0.36082925     1.26100
H806        H  0.10477882  0.10808226  0.35925837     0.38100
O807        O  0.14972428  0.05289048  0.81972890    -0.81800
O808        O  0.15670194  0.18014387  0.86835839    -0.66500
O809        O  0.12616884  0.10497600  0.84742864    -1.13100
C810        C  0.13156706  0.13375142  0.67670787     1.05100
O811        O  0.12000187  0.19031298  0.82352102    -0.79700
O812        O  0.08675726  0.16272894  0.76096170    -0.67300
Ni813      Ni  0.14010483  0.07269080  0.88085689     1.34900
C814        C  0.07431459  0.13908784  0.76687214     0.83800
O815        O  0.13889531  0.13754205  0.93224465    -0.80300
O816        O  0.13152870  0.09054667  0.94384000    -0.90500
C817        C  0.14266166  0.19858228  0.84404818     0.83400
O818        O  0.17874653  0.08392220  0.89016595    -0.68700
O819        O  0.12991420  0.15908640  0.69385335    -0.88000
C820        C  0.19249873  0.10713779  0.88668530     0.84200
C821        C  0.13465182  0.11597077  0.96049210     1.05800
H822        H  0.16341645  0.14348807  0.77853359     0.37600
O823        O  0.14367665  0.14324650  0.78895974    -1.10700
O824        O  0.08823089  0.11622190  0.77383962    -0.67300
Ni825      Ni  0.12858035  0.10656342  0.77583696     1.26300
O826        O  0.18158140  0.12932833  0.86697989    -0.67600
O827        O  0.13118682  0.11128987  0.70407575    -0.79900
C828        C  0.13229387  0.04785108  0.78427969     0.83600
O829        O  0.11686323  0.06766175  0.76659847    -0.67000
Ni830      Ni  0.12525782  0.17479149  0.75911960     1.27400
Ni831      Ni  0.14210267  0.14150887  0.86099391     1.26100
H832        H  0.10630326  0.10611562  0.85675399     0.38100
C833        C  0.13331983  0.13095668  0.62173856    -0.07100
C834        C  0.11785798  0.15032100  0.59215200    -0.18200
C835        C  0.11786219  0.14843090  0.53976294     0.10100
C836        C  0.13317196  0.12627336  0.51649304    -0.07000
C837        C  0.14920904  0.10746876  0.54602819    -0.18200
C838        C  0.14996386  0.10993821  0.59801501     0.10200
S839        S  0.09723290  0.17342629  0.50353532    -0.33200
S840        S  0.17379761  0.08670824  0.63140961    -0.33200
H841        H  0.18249267  0.10746041  0.66629081     0.28200
H842        H  0.08795289  0.19033258  0.54388294     0.28200
H843        H  0.10529061  0.16668696  0.61027203     0.18800
H844        H  0.16193089  0.09105076  0.52826264     0.18800
C845        C  0.13582452  0.12337918  0.12189875    -0.07100
C846        C  0.14640049  0.14561369  0.09196544    -0.18200
C847        C  0.14581290  0.14437113  0.03971227     0.10100
C848        C  0.13430145  0.11995674  0.01579786    -0.07000
C849        C  0.12424678  0.09743561  0.04578810    -0.18200
C850        C  0.12510816  0.09869492  0.09804530     0.10200
S851        S  0.16026751  0.17429580  0.00538007    -0.33200
S852        S  0.11107117  0.06851427  0.13144779    -0.33200
H853        H  0.13695454  0.06317702  0.15628175     0.28200
H854        H  0.17115088  0.18974082  0.04626633     0.28200
H855        H  0.15497237  0.16447988  0.10974948     0.18800
H856        H  0.11562179  0.07841379  0.02847303     0.18800
C857        C  0.27002681  0.10743989  0.47103509    -0.07100
C858        C  0.26422519  0.08699775  0.43334487    -0.18200
C859        C  0.23981469  0.08830222  0.40313871     0.10100
C860        C  0.22025047  0.11067968  0.40961542    -0.07000
C861        C  0.22601674  0.13151617  0.44624520    -0.18200
C862        C  0.25022288  0.12994772  0.47732347     0.10200
S863        S  0.23440159  0.06179837  0.35489958    -0.33200
S864        S  0.25358732  0.15653062  0.52560511    -0.33200
H865        H  0.26126008  0.13686273  0.56281331     0.28200
H866        H  0.25565019  0.04280981  0.37087096     0.28200
H867        H  0.27924663  0.07000507  0.42635681     0.18800
H868        H  0.21058810  0.14826028  0.45286442     0.18800
C869        C  0.35865027  0.12090336  0.76763174    -0.07100
C870        C  0.37754811  0.13787328  0.79593953    -0.18200
C871        C  0.37836783  0.13640190  0.84811221     0.10100
C872        C  0.35969498  0.11777867  0.87293799    -0.07000
C873        C  0.34120687  0.10037979  0.84483585    -0.18200
C874        C  0.34019452  0.10197942  0.79266268     0.10200
S875        S  0.40428231  0.15796745  0.88057192    -0.33200
S876        S  0.31377039  0.08072477  0.76088607    -0.33200
H877        H  0.30617084  0.10201897  0.72654852     0.28200
H878        H  0.40931121  0.13849627  0.91940468     0.28200
H879        H  0.39212468  0.15223995  0.77715869     0.18800
H880        H  0.32674005  0.08601331  0.86391437     0.18800
C881        C  0.35763764  0.12538624  0.26774550    -0.07100
C882        C  0.37010792  0.14657970  0.29831585    -0.18200
C883        C  0.37088178  0.14411427  0.35044179     0.10100
C884        C  0.35904334  0.11983731  0.37321634    -0.07000
C885        C  0.34636074  0.09879333  0.34294415    -0.18200
C886        C  0.34501001  0.10150338  0.29096160     0.10200
S887        S  0.38813556  0.17213286  0.38537386    -0.33200
S888        S  0.32531313  0.07462347  0.25730739    -0.33200
H889        H  0.31085561  0.09427274  0.22690205     0.28200
H890        H  0.40056917  0.15397421  0.42090277     0.28200
H891        H  0.37996771  0.16510351  0.28151968     0.18800
H892        H  0.33638247  0.08043602  0.36016267     0.18800
C893        C  0.27021336  0.10925176  0.97611296    -0.07100
C894        C  0.26332927  0.13266155  0.94564901    -0.18200
C895        C  0.23946794  0.13226426  0.91346127     0.10100
C896        C  0.22125231  0.10807890  0.91200011    -0.07000
C897        C  0.22846380  0.08481836  0.94288933    -0.18200
C898        C  0.25208967  0.08525421  0.97477100     0.10200
S899        S  0.23450571  0.16274907  0.87382040    -0.33200
S900        S  0.25752221  0.05444640  0.01378234    -0.33200
H901        H  0.27025279  0.06946951  0.05353232     0.28200
H902        H  0.22837241  0.14638672  0.83096186     0.28200
H903        H  0.27758977  0.15082328  0.94470106     0.18800
H904        H  0.21501927  0.06607292  0.94385762     0.18800
C905        C  0.36369177  0.95247572  0.61569298    -0.07100
C906        C  0.37240265  0.97096784  0.65416159    -0.18200
C907        C  0.36945366  0.00065237  0.64949248     0.10100
C908        C  0.35856030  0.01228305  0.60454048    -0.07000
C909        C  0.35039490  0.99350241  0.56602886    -0.18200
C910        C  0.35287835  0.96408776  0.57097219     0.10200
S911        S  0.37811175  0.02214497  0.70326367    -0.33200
S912        S  0.34257852  0.94253098  0.51798018    -0.33200
H913        H  0.36462896  0.92265550  0.52390639     0.28200
H914        H  0.35396405  0.03966120  0.69880212     0.28200
H915        H  0.38033711  0.96218600  0.68888516     0.18800
H916        H  0.34237143  0.00176817  0.53097428     0.18800
C917        C  0.36497025  0.95521106  0.11618956    -0.07100
C918        C  0.37961389  0.97326456  0.14948591    -0.18200
C919        C  0.37857097  0.00317231  0.14422912     0.10100
C920        C  0.36190920  0.01519472  0.10535956    -0.07000
C921        C  0.34870686  0.99671152  0.07092642    -0.18200
C922        C  0.35065593  0.96728819  0.07512879     0.10200
S923        S  0.39801820  0.02523730  0.18795338    -0.33200
S924        S  0.33551154  0.94627332  0.02516122    -0.33200
H925        H  0.35750851  0.92599928  0.02508878     0.28200
H926        H  0.41271304  0.00310223  0.21201974     0.28200
H927        H  0.39120947  0.96391871  0.18031171     0.18800
H928        H  0.33704632  0.00516053  0.03934187     0.18800
C929        C  0.37845667  0.86964834  0.88076000    -0.07100
C930        C  0.35966206  0.84991848  0.90243968    -0.18200
C931        C  0.35757608  0.84704224  0.95446797     0.10100
C932        C  0.37435041  0.86452566  0.98602121    -0.07000
C933        C  0.39284941  0.88448179  0.96446904    -0.18200
C934        C  0.39486537  0.88750936  0.91240610     0.10200
S935        S  0.33410690  0.81976542  0.97814609    -0.33200
S936        S  0.41747447  0.91519308  0.88712582    -0.33200
H937        H  0.42491346  0.92797250  0.93294941     0.28200
H938        H  0.35051690  0.81359218  0.02075231     0.28200
H939        H  0.34745436  0.83569182  0.87869277     0.18800
H940        H  0.40504421  0.89842154  0.98869569     0.18800
C941        C  0.38482131  0.86941323  0.38060492    -0.07100
C942        C  0.36674020  0.84900454  0.40200223    -0.18200
C943        C  0.36570431  0.84499614  0.45385389     0.10100
C944        C  0.38268700  0.86221822  0.48547142    -0.07000
C945        C  0.40127854  0.88219691  0.46417578    -0.18200
C946        C  0.40260107  0.88596867  0.41213201     0.10200
S947        S  0.34353113  0.81695794  0.47914295    -0.33200
S948        S  0.42588825  0.91305769  0.38684125    -0.33200
H949        H  0.43964539  0.92014952  0.43192624     0.28200
H950        H  0.33210397  0.80739204  0.43345908     0.28200
H951        H  0.35412816  0.83544302  0.37777361     0.18800
H952        H  0.41376818  0.89578511  0.48854738     0.18800
C953        C  0.39526826  0.73076627  0.84166590    -0.07100
C954        C  0.37305990  0.73685516  0.80798652    -0.18200
C955        C  0.37400307  0.76070680  0.77624405     0.10100
C956        C  0.39741237  0.77986147  0.77875159    -0.07000
C957        C  0.41975311  0.77325878  0.81216554    -0.18200
C958        C  0.41885224  0.74941560  0.84342692     0.10200
S959        S  0.34519587  0.76451322  0.73226291    -0.33200
S960        S  0.44815632  0.74463947  0.88618489    -0.33200
H961        H  0.43181379  0.73163087  0.92391859     0.28200
H962        H  0.36309162  0.77232969  0.69227556     0.28200
H963        H  0.35540181  0.72207553  0.80450380     0.18800
H964        H  0.43788324  0.78741413  0.81577986     0.18800
C965        C  0.37884605  0.64883272  0.63569514    -0.07100
C966        C  0.39649461  0.62815856  0.65716271    -0.18200
C967        C  0.39732923  0.62423252  0.70903555     0.10100
C968        C  0.38074637  0.64189242  0.74065900    -0.07000
C969        C  0.36324016  0.66267181  0.71912085    -0.18200
C970        C  0.36227382  0.66648859  0.66733628     0.10200
S971        S  0.41873653  0.59530352  0.73221323    -0.33200
S972        S  0.34012598  0.69491052  0.64421892    -0.33200
H973        H  0.35707713  0.70083096  0.60206134     0.28200
H974        H  0.40095256  0.58919505  0.77323934     0.28200
H975        H  0.40854547  0.61390651  0.63322937     0.18800
H976        H  0.35109110  0.67691447  0.74292183     0.18800
C977        C  0.37936743  0.64563592  0.24085708    -0.07100
C978        C  0.36041719  0.66515528  0.21935279    -0.18200
C979        C  0.35814552  0.66791301  0.16734977     0.10100
C980        C  0.37456630  0.65019233  0.13555769    -0.07000
C981        C  0.39343760  0.63060521  0.15710253    -0.18200
C982        C  0.39587220  0.62800268  0.20910204     0.10200
S983        S  0.33515689  0.69558567  0.14406472    -0.33200
S984        S  0.41964147  0.60101781  0.23248933    -0.33200
H985        H  0.40356526  0.59495493  0.27563594     0.28200
H986        H  0.35206380  0.70191191  0.10201440     0.28200
H987        H  0.34829832  0.67938140  0.24323526     0.18800
H988        H  0.40563103  0.61643103  0.13325174     0.18800
C989        C  0.39148505  0.73470083  0.34848430    -0.07100
C990        C  0.36938630  0.73998527  0.31407968    -0.18200
C991        C  0.37024137  0.76340794  0.28129525     0.10100
C992        C  0.39357892  0.78264261  0.28307503    -0.07000
C993        C  0.41508790  0.77755503  0.31891442    -0.18200
C994        C  0.41413698  0.75435514  0.35150484     0.10200
S995        S  0.34169340  0.76639366  0.23661689    -0.33200
S996        S  0.44235893  0.75135019  0.39697930    -0.33200
H997        H  0.42584466  0.73705851  0.43302403     0.28200
H998        H  0.35971124  0.77389031  0.19663076     0.28200
H999        H  0.35217416  0.72470680  0.31036027     0.18800
H1000       H  0.43270702  0.79230360  0.32299962     0.18800
C1001       C  0.61211168  0.37110573  0.63397354    -0.07100
C1002       C  0.63548666  0.37974478  0.66367341    -0.18200
C1003       C  0.63354844  0.38210476  0.71558155     0.10100
C1004       C  0.60765718  0.37544163  0.73951991    -0.07000
C1005       C  0.58419168  0.36683329  0.71016480    -0.18200
C1006       C  0.58606987  0.36446557  0.65790860     0.10200
S1007       S  0.66471452  0.39455141  0.74855732    -0.33200
S1008       S  0.55560597  0.35120016  0.62351970    -0.33200
H1009       H  0.53563381  0.35352804  0.66261315     0.28200
H1010       H  0.64942144  0.41158321  0.78261207     0.28200
H1011       H  0.65558845  0.38541386  0.64634171     0.18800
H1012       H  0.56448131  0.36087329  0.72849256     0.18800
C1013       C  0.61265926  0.37258074  0.23877496    -0.07100
C1014       C  0.59464297  0.39077349  0.21149942    -0.18200
C1015       C  0.59652584  0.39284712  0.15938748     0.10100
C1016       C  0.61667950  0.37613256  0.13340844    -0.07000
C1017       C  0.63533227  0.35875805  0.16061683    -0.18200
C1018       C  0.63323978  0.35638872  0.21258146     0.10200
S1019       S  0.57336546  0.41786463  0.12860871    -0.33200
S1020       S  0.65563818  0.33040696  0.24228573    -0.33200
H1021       H  0.63287423  0.31859217  0.26935205     0.28200
H1022       H  0.59345874  0.42610434  0.09239463     0.28200
H1023       H  0.57893358  0.40358258  0.23096908     0.18800
H1024       H  0.65097600  0.34597307  0.14091944     0.18800
C1025       C  0.50604308  0.13402791  0.65113702    -0.07100
C1026       C  0.49071705  0.10878012  0.65937675    -0.18200
C1027       C  0.46120288  0.10716588  0.65007812     0.10100
C1028       C  0.44658689  0.13108815  0.63031731    -0.07000
C1029       C  0.46262939  0.15564285  0.61920615    -0.18200
C1030       C  0.49186980  0.15734026  0.62929885     0.10200
S1031       S  0.44327116  0.07500636  0.66897675    -0.33200
S1032       S  0.50990066  0.19018833  0.61437246    -0.33200
H1033       H  0.53665872  0.17776425  0.60502584     0.28200
H1034       H  0.42220622  0.08933524  0.69684508     0.28200
H1035       H  0.50134224  0.09089195  0.67672076     0.18800
H1036       H  0.45219025  0.17409285  0.60340886     0.18800
C1037       C  0.59766003  0.23579922  0.77901363    -0.07100
C1038       C  0.62156299  0.24403212  0.80759510    -0.18200
C1039       C  0.62198729  0.26948399  0.83584339     0.10100
C1040       C  0.59755331  0.28726668  0.83671930    -0.07000
C1041       C  0.57427118  0.27940230  0.80597595    -0.18200
C1042       C  0.57434169  0.25465139  0.77669110     0.10200
S1043       S  0.65374404  0.27810302  0.87099455    -0.33200
S1044       S  0.54418578  0.24883690  0.73606253    -0.33200
H1045       H  0.55985591  0.23463450  0.69865556     0.28200
H1046       H  0.67147905  0.25709082  0.85003786     0.28200
H1047       H  0.63954799  0.22970117  0.80992036     0.18800
H1048       H  0.55570103  0.29298089  0.80352043     0.18800
C1049       C  0.50626326  0.13718383  0.15064756    -0.07100
C1050       C  0.49300386  0.11117411  0.13911052    -0.18200
C1051       C  0.46408860  0.10998771  0.12541067     0.10100
C1052       C  0.44762932  0.13535977  0.12502650    -0.07000
C1053       C  0.46195913  0.16143627  0.13234801    -0.18200
C1054       C  0.49084117  0.16261498  0.14428844     0.10200
S1055       S  0.44983454  0.07549732  0.10968881    -0.33200
S1056       S  0.50674705  0.19741531  0.15106555    -0.33200
H1057       H  0.53371109  0.18934233  0.13280413     0.28200
H1058       H  0.43618795  0.08520943  0.06610919     0.28200
H1059       H  0.50497053  0.09156127  0.14236947     0.18800
H1060       H  0.45051940  0.18138575  0.12997926     0.18800
C1061       C  0.61317119  0.14298449  0.00782808    -0.07100
C1062       C  0.59323821  0.16231834  0.98871144    -0.18200
C1063       C  0.59054257  0.16661872  0.93694516     0.10100
C1064       C  0.60775399  0.15077668  0.90312811    -0.07000
C1065       C  0.62777814  0.13171014  0.92251341    -0.18200
C1066       C  0.63028113  0.12726256  0.97398564     0.10200
S1067       S  0.56581773  0.19361573  0.91681782    -0.33200
S1068       S  0.65452260  0.09979037  0.99387518    -0.33200
H1069       H  0.63698869  0.08990963  0.03290385     0.28200
H1070       H  0.58261659  0.20293756  0.87643867     0.28200
H1071       H  0.58037963  0.17484626  0.01427326     0.18800
H1072       H  0.64071906  0.11910134  0.89721727     0.18800
C1073       C  0.60778666  0.14023263  0.40351865    -0.07100
C1074       C  0.63161163  0.12693181  0.42438710    -0.18200
C1075       C  0.63506464  0.12540482  0.47628676     0.10100
C1076       C  0.61466312  0.13819963  0.50849493    -0.07000
C1077       C  0.59074949  0.15128373  0.48770796    -0.18200
C1078       C  0.58731375  0.15284845  0.43590212     0.10200
S1079       S  0.66521280  0.10550405  0.49894584    -0.33200
S1080       S  0.55752891  0.17334654  0.41374308    -0.33200
H1081       H  0.57425015  0.18792093  0.37864390     0.28200
H1082       H  0.64997013  0.09252946  0.53806456     0.28200
H1083       H  0.64721159  0.11690862  0.40016618     0.18800
H1084       H  0.57526935  0.16151189  0.51192974     0.18800
C1085       C  0.59503613  0.22747573  0.29685814    -0.07100
C1086       C  0.57046141  0.23763230  0.32178945    -0.18200
C1087       C  0.57054949  0.26291221  0.34977990     0.10100
C1088       C  0.59534013  0.27996963  0.35166897    -0.07000
C1089       C  0.62012174  0.26978891  0.32806665    -0.18200
C1090       C  0.62035628  0.24408447  0.30060466     0.10200
S1091       S  0.53869517  0.27135752  0.38466916    -0.33200
S1092       S  0.65325167  0.23356554  0.27041544    -0.33200
H1093       H  0.66979053  0.25724922  0.28451224     0.28200
H1094       H  0.55305155  0.28501042  0.42426606     0.28200
H1095       H  0.55097210  0.22524165  0.32128394     0.18800
H1096       H  0.63926967  0.28260808  0.32979048     0.18800
C1097       C  0.86237353  0.89937884  0.51295299    -0.07100
C1098       C  0.84450072  0.91714343  0.54160946    -0.18200
C1099       C  0.84321779  0.91502724  0.59369221     0.10100
C1100       C  0.86070626  0.89513535  0.61820425    -0.07000
C1101       C  0.87906416  0.87779504  0.58955835    -0.18200
C1102       C  0.88003398  0.87963642  0.53725969     0.10200
S1103       S  0.81776197  0.93711371  0.62609763    -0.33200
S1104       S  0.90479607  0.85783056  0.50234431    -0.33200
H1105       H  0.91432465  0.84139651  0.54288254     0.28200
H1106       H  0.80931151  0.91600026  0.66025670     0.28200
H1107       H  0.83059720  0.93218512  0.52305688     0.18800
H1108       H  0.89287758  0.86283935  0.60842007     0.18800
C1109       C  0.86228499  0.89487821  0.01297479    -0.07100
C1110       C  0.84353584  0.87505860  0.03441374    -0.18200
C1111       C  0.84040372  0.87292198  0.08632209     0.10100
C1112       C  0.85668475  0.89071089  0.11827565    -0.07000
C1113       C  0.87551362  0.91046986  0.09689102    -0.18200
C1114       C  0.87885883  0.91241942  0.04497499     0.10200
S1115       S  0.81425703  0.84792548  0.10912049    -0.33200
S1116       S  0.90572111  0.93671114  0.02229867    -0.33200
H1117       H  0.91378065  0.91960767  0.98136658     0.28200
H1118       H  0.80583462  0.86470536  0.15022159     0.28200
H1119       H  0.83017053  0.86198075  0.01054402     0.18800
H1120       H  0.88878087  0.92359156  0.12085110     0.18800
C1121       C  0.63217584  0.99492166  0.61003813    -0.07100
C1122       C  0.65724450  0.01116241  0.61051178    -0.18200
C1123       C  0.65768901  0.03948384  0.62751745     0.10100
C1124       C  0.63178036  0.05308084  0.64227485    -0.07000
C1125       C  0.60694760  0.03620054  0.64451786    -0.18200
C1126       C  0.60691000  0.00745820  0.62911345     0.10200
S1127       S  0.69204530  0.05715647  0.63014299    -0.33200
S1128       S  0.57353685  0.98850374  0.63242337    -0.33200
H1129       H  0.57641387  0.97535704  0.58536187     0.28200
H1130       H  0.70912736  0.03273801  0.62507214     0.28200
H1131       H  0.67681260  0.00146867  0.59738209     0.18800
H1132       H  0.58704428  0.04570202  0.65649336     0.18800
C1133       C  0.54603674  0.87561241  0.61735375    -0.07100
C1134       C  0.53237269  0.90005084  0.63603022    -0.18200
C1135       C  0.50316973  0.89976984  0.64763230     0.06900
C1136       C  0.48724658  0.87452574  0.64041062    -0.07000
C1137       C  0.50042608  0.85082865  0.61869313    -0.18200
C1138       C  0.52927625  0.85136375  0.60572464     0.10200
S1139       S  0.48798747  0.93177757  0.67382473    -0.33200
S1140       S  0.54314605  0.82065431  0.57323077    -0.33200
H1141       H  0.56214447  0.83633214  0.54318914     0.28200
H1142       H  0.46755546  0.91843645  0.70428451     0.28200
H1143       H  0.54476603  0.91896961  0.64430449     0.18800
H1144       H  0.48807771  0.83170429  0.61170036     0.18800
C1145       C  0.72311824  0.90210975  0.47252283    -0.07100
C1146       C  0.73142411  0.87930607  0.44153919    -0.18200
C1147       C  0.75586869  0.88086581  0.41096760     0.10100
C1148       C  0.77342378  0.90549473  0.41226203    -0.07000
C1149       C  0.76557830  0.92766357  0.44528733    -0.18200
C1150       C  0.74109674  0.92619762  0.47520551     0.10200
S1151       S  0.76224011  0.85138318  0.36923110    -0.33200
S1152       S  0.73430132  0.95572897  0.51688206    -0.33200
H1153       H  0.71989007  0.93960566  0.55330057     0.28200
H1154       H  0.76964661  0.86869531  0.32834319     0.28200
H1155       H  0.71780506  0.86076418  0.43866995     0.18800
H1156       H  0.77902376  0.94630963  0.44905685     0.18800
C1157       C  0.62903606  0.99279249  0.11329190    -0.07100
C1158       C  0.65422217  0.00688364  0.12670513    -0.18200
C1159       C  0.65395511  0.03512900  0.14336491     0.10100
C1160       C  0.62802362  0.05074534  0.14358986    -0.07000
C1161       C  0.60255953  0.03600162  0.13306054    -0.18200
C1162       C  0.60278706  0.00727938  0.11821965     0.10200
S1163       S  0.68744236  0.04940193  0.16524348    -0.33200
S1164       S  0.56906661  0.99093152  0.10307794    -0.33200
H1165       H  0.57917518  0.97532460  0.06176695     0.28200
H1166       H  0.67511785  0.06489307  0.20487604     0.28200
H1167       H  0.67434721  0.99561417  0.12475228     0.18800
H1168       H  0.58242126  0.04724657  0.13378038     0.18800
C1169       C  0.54222697  0.87479092  0.10635409    -0.07100
C1170       C  0.52942890  0.89770756  0.13169119    -0.18200
C1171       C  0.50055888  0.89690250  0.14498176     0.10100
C1172       C  0.48396031  0.87294835  0.13186028    -0.07000
C1173       C  0.49611573  0.85106364  0.10347023    -0.18200
C1174       C  0.52484143  0.85197403  0.08968880     0.10200
S1175       S  0.48668118  0.92621459  0.18130043    -0.33200
S1176       S  0.53789464  0.82340228  0.05074350    -0.33200
H1177       H  0.55807465  0.84022494  0.02534903     0.28200
H1178       H  0.46778374  0.91007275  0.21063761     0.28200
H1179       H  0.54236887  0.91543031  0.14441168     0.18800
H1180       H  0.48317774  0.83297969  0.09238907     0.18800
C1181       C  0.63794358  0.88750618  0.75675449    -0.07100
C1182       C  0.65425771  0.86863776  0.78551906    -0.18200
C1183       C  0.65489450  0.87052792  0.83766698     0.10100
C1184       C  0.63804202  0.89127427  0.86235861    -0.07000
C1185       C  0.62214860  0.91044018  0.83320774    -0.18200
C1186       C  0.62177731  0.90870875  0.78107418     0.10200
S1187       S  0.67890571  0.84690936  0.86961613    -0.33200
S1188       S  0.59887548  0.93309334  0.74819032    -0.33200
H1189       H  0.58730145  0.91226869  0.71616400     0.28200
H1190       H  0.69001193  0.86879020  0.89959888     0.28200
H1191       H  0.66696608  0.85244635  0.76708068     0.18800
H1192       H  0.60923770  0.92661518  0.85117628     0.18800
C1193       C  0.63010071  0.88616711  0.36220969    -0.07100
C1194       C  0.61802828  0.90799067  0.33299959    -0.18200
C1195       C  0.61595795  0.90581796  0.28091492     0.10100
C1196       C  0.62684456  0.88151275  0.25633611    -0.07000
C1197       C  0.63785803  0.85920864  0.28539838    -0.18200
C1198       C  0.63981124  0.86125807  0.33751686     0.10200
S1199       S  0.59800388  0.93424186  0.24855613    -0.33200
S1200       S  0.65639276  0.83186104  0.36917303    -0.33200
H1201       H  0.67607614  0.84932003  0.39426426     0.28200
H1202       H  0.58319123  0.91611357  0.21556516     0.28200
H1203       H  0.60977804  0.92699571  0.35087316     0.18800
H1204       H  0.64603603  0.84025891  0.26719879     0.18800
C1205       C  0.77192757  0.90679195  0.91243675    -0.07100
C1206       C  0.75992985  0.93213142  0.93103369    -0.18200
C1207       C  0.73663160  0.93215023  0.96355468     0.10100
C1208       C  0.72309476  0.90621616  0.97657543    -0.07000
C1209       C  0.73524046  0.88070407  0.95906899    -0.18200
C1210       C  0.75901349  0.88066360  0.92682766     0.10200
S1211       S  0.72608868  0.96631847  0.98845779    -0.33200
S1212       S  0.77137649  0.84647470  0.90557023    -0.33200
H1213       H  0.77040315  0.85412182  0.85473904     0.28200
H1214       H  0.71746091  0.95556086  0.03517550     0.28200
H1215       H  0.76950553  0.95245447  0.92183443     0.18800
H1216       H  0.72513614  0.86060269  0.96806347     0.18800
C1217       C  0.83634308  0.73050681  0.81292965    -0.07100
C1218       C  0.83351173  0.74870269  0.77203711    -0.18200
C1219       C  0.83328545  0.77833232  0.77910003     0.10100
C1220       C  0.83666526  0.78984612  0.82782023    -0.07000
C1221       C  0.83546608  0.77164580  0.86894194    -0.18200
C1222       C  0.83485778  0.74209792  0.86193398     0.10200
S1223       S  0.83022268  0.80135073  0.72544088    -0.33200
S1224       S  0.83384400  0.72015290  0.91703105    -0.33200
H1225       H  0.82055083  0.69690091  0.89332381     0.28200
H1226       H  0.82356311  0.77990193  0.69050662     0.28200
H1227       H  0.83395937  0.73987683  0.73457835     0.18800
H1228       H  0.83716672  0.78029900  0.90644709     0.18800
C1229       C  0.84541969  0.73022328  0.30901140    -0.07100
C1230       C  0.84501223  0.73987661  0.35902165    -0.18200
C1231       C  0.84495314  0.76889760  0.37091345     0.10100
C1232       C  0.84531184  0.78894662  0.33204092    -0.07000
C1233       C  0.84295026  0.77930232  0.28214424    -0.18200
C1234       C  0.84336996  0.75023926  0.27014681     0.10200
S1235       S  0.84844690  0.77890139  0.43567657    -0.33200
S1236       S  0.84429159  0.74045285  0.20486117    -0.33200
H1237       H  0.86341704  0.71766313  0.20994375     0.28200
H1238       H  0.82911125  0.80162797  0.43270511     0.28200
H1239       H  0.84650171  0.72462171  0.38923695     0.18800
H1240       H  0.84324969  0.79462228  0.25191017     0.18800
C1241       C  0.85907804  0.62581989  0.62581057    -0.07100
C1242       C  0.83717390  0.64162346  0.60343952    -0.18200
C1243       C  0.83394587  0.64226030  0.55131447     0.10100
C1244       C  0.85321419  0.62705113  0.52046727    -0.07000
C1245       C  0.87501305  0.61125358  0.54279901    -0.18200
C1246       C  0.87843361  0.61083672  0.59474641     0.10200
S1247       S  0.80412236  0.66185621  0.52652531    -0.33200
S1248       S  0.90881378  0.59184699  0.61886068    -0.33200
H1249       H  0.91327892  0.61025454  0.65974077     0.28200
H1250       H  0.80051846  0.64469643  0.48377559     0.28200
H1251       H  0.82168862  0.65250754  0.62673906     0.18800
H1252       H  0.89044594  0.60032320  0.51945614     0.18800
C1253       C  0.86337782  0.62630696  0.02055945    -0.07100
C1254       C  0.84441711  0.60614954  0.04006833    -0.18200
C1255       C  0.83986089  0.60390242  0.09157667     0.10100
C1256       C  0.85532618  0.62155930  0.12511698    -0.07000
C1257       C  0.87435022  0.64168310  0.10571068    -0.18200
C1258       C  0.87890026  0.64395707  0.05413138     0.10200
S1259       S  0.81258084  0.57933098  0.11160591    -0.33200
S1260       S  0.90590561  0.66883481  0.03406027    -0.33200
H1261       H  0.91606232  0.65160228  0.99476531     0.28200
H1262       H  0.80202333  0.59722398  0.14950474     0.28200
H1263       H  0.83197447  0.59295352  0.01490430     0.18800
H1264       H  0.88659431  0.65499904  0.13098326     0.18800
C1265       C  0.65370300  0.72663548  0.59270124    -0.07100
C1266       C  0.65973633  0.73307061  0.54220789    -0.18200
C1267       C  0.66004471  0.76125572  0.52458788     0.10100
C1268       C  0.65362801  0.78364327  0.55786896    -0.07000
C1269       C  0.65096622  0.77726975  0.60929891    -0.18200
C1270       C  0.65090553  0.74921325  0.62696515     0.10200
S1271       S  0.66496041  0.76691539  0.45862436    -0.33200
S1272       S  0.64290836  0.74358995  0.69215940    -0.33200
H1273       H  0.65767359  0.71773265  0.69616664     0.28200
H1274       H  0.68147343  0.79166357  0.46475293     0.28200
H1275       H  0.66190464  0.71584254  0.51541460     0.18800
H1276       H  0.64655969  0.79421749  0.63572712     0.18800
C1277       C  0.63280874  0.51676508  0.52732738    -0.07100
C1278       C  0.60726028  0.50561038  0.50800896    -0.18200
C1279       C  0.60510016  0.47706616  0.49244598     0.10100
C1280       C  0.62883140  0.45859580  0.49745145    -0.07000
C1281       C  0.65492300  0.47065397  0.51317623    -0.18200
C1282       C  0.65724472  0.49924369  0.52770637     0.10200
S1283       S  0.57148322  0.46597786  0.46670262    -0.33200
S1284       S  0.69183621  0.51305715  0.54549081    -0.33200
H1285       H  0.70746264  0.48780432  0.53886755     0.28200
H1286       H  0.58391422  0.45181715  0.42568027     0.28200
H1287       H  0.58856330  0.51907445  0.50603999     0.18800
H1288       H  0.67372347  0.45744407  0.51545779     0.18800
C1289       C  0.54450504  0.63723700  0.51300516    -0.07100
C1290       C  0.52979894  0.66317683  0.51912077    -0.18200
C1291       C  0.50098342  0.66599346  0.50645015     0.10100
C1292       C  0.48588359  0.64231227  0.48761795    -0.07000
C1293       C  0.49982886  0.61596774  0.48419869    -0.18200
C1294       C  0.52895130  0.61326318  0.49556801     0.10200
S1295       S  0.48480001  0.70049785  0.51476384    -0.33200
S1296       S  0.54527052  0.57938603  0.48242132    -0.33200
H1297       H  0.56780568  0.59124323  0.45461391     0.28200
H1298       H  0.45712248  0.69032552  0.52435522     0.28200
H1299       H  0.54099666  0.68177309  0.53301325     0.18800
H1300       H  0.48839939  0.59773336  0.46940858     0.18800
C1301       C  0.71878149  0.60762335  0.67642342    -0.07100
C1302       C  0.72870259  0.63350495  0.69683179    -0.18200
C1303       C  0.75368483  0.63497552  0.72607596     0.10100
C1304       C  0.76991176  0.61002041  0.73499571    -0.07000
C1305       C  0.75950974  0.58417868  0.71506480    -0.18200
C1306       C  0.73484663  0.58270726  0.68556428     0.10200
S1307       S  0.76344522  0.66938385  0.75041388    -0.33200
S1308       S  0.72532056  0.54884863  0.65763569    -0.33200
H1309       H  0.74734742  0.53245492  0.67845932     0.28200
H1310       H  0.76668332  0.65944789  0.79968666     0.28200
H1311       H  0.71634357  0.65271127  0.69145998     0.18800
H1312       H  0.77139892  0.56480525  0.72115271     0.18800
C1313       C  0.65322804  0.72886177  0.08991938    -0.07100
C1314       C  0.65846070  0.73400823  0.03875763    -0.18200
C1315       C  0.65963936  0.76175669  0.01946744     0.10100
C1316       C  0.65578582  0.78502032  0.05210421    -0.07000
C1317       C  0.65413053  0.77979679  0.10396292    -0.18200
C1318       C  0.65247969  0.75212761  0.12310798     0.10200
S1319       S  0.66181101  0.76579988  0.95257307    -0.33200
S1320       S  0.64479835  0.74817466  0.18877477    -0.33200
H1321       H  0.65826905  0.72167874  0.19378649     0.28200
H1322       H  0.67498116  0.79264213  0.95368806     0.28200
H1323       H  0.65889228  0.71622222  0.01284045     0.18800
H1324       H  0.65123974  0.79748464  0.12954646     0.18800
C1325       C  0.62366481  0.46362499  0.99294948    -0.07100
C1326       C  0.59974655  0.47526665  0.01721868    -0.18200
C1327       C  0.59990937  0.50330968  0.03528300     0.10100
C1328       C  0.62428274  0.52053713  0.02806641    -0.07000
C1329       C  0.64730880  0.50971217  0.00064247    -0.18200
C1330       C  0.64703237  0.48180844  0.98209294     0.10200
S1331       S  0.56910169  0.51489407  0.07021838    -0.33200
S1332       S  0.67697324  0.47098081  0.94420068    -0.33200
H1333       H  0.66100852  0.45256645  0.91342308     0.28200
H1334       H  0.58323196  0.53441015  0.10148018     0.28200
H1335       H  0.58150113  0.46188946  0.02537991     0.18800
H1336       H  0.66568119  0.52314602  0.99357768     0.18800
C1337       C  0.48098276  0.64291922  0.99687696    -0.07100
C1338       C  0.49342409  0.61689321  0.01008154    -0.18200
C1339       C  0.52190862  0.61547984  0.02585196     0.10100
C1340       C  0.53874901  0.64063191  0.02699598    -0.07000
C1341       C  0.52502641  0.66684915  0.01864449    -0.18200
C1342       C  0.49652373  0.66825007  0.00425063     0.10200
S1343       S  0.53522093  0.58089445  0.04234866    -0.33200
S1344       S  0.48133750  0.70311779  0.99539508    -0.33200
H1345       H  0.45356787  0.69545464  0.01016291     0.28200
H1346       H  0.54836346  0.59054179  0.08658545     0.28200
H1347       H  0.48123811  0.59739138  0.00621265     0.18800
H1348       H  0.53675723  0.68665415  0.02163793     0.18800
C1349       C  0.62547691  0.62637397  0.88336739    -0.07100
C1350       C  0.61375646  0.64743031  0.85199255    -0.18200
C1351       C  0.61296258  0.64416525  0.79989173     0.10100
C1352       C  0.62522683  0.61984912  0.77775041    -0.07000
C1353       C  0.63605941  0.59837614  0.80894009    -0.18200
C1354       C  0.63596177  0.60104184  0.86118343     0.10200
S1355       S  0.59472401  0.67098270  0.76408285    -0.33200
S1356       S  0.65068183  0.57226161  0.89775901    -0.33200
H1357       H  0.64903289  0.55127054  0.86021373     0.28200
H1358       H  0.58363253  0.65190184  0.72835056     0.28200
H1359       H  0.60444648  0.66642759  0.86819732     0.18800
H1360       H  0.64550597  0.57961521  0.79217751     0.18800
C1361       C  0.62902741  0.62230191  0.27851757    -0.07100
C1362       C  0.64814769  0.64176928  0.30009977    -0.18200
C1363       C  0.65224010  0.64291130  0.35188055     0.10100
C1364       C  0.63636741  0.62470235  0.38347212    -0.07000
C1365       C  0.61753444  0.60498270  0.36201574    -0.18200
C1366       C  0.61343182  0.60377958  0.31023629     0.10200
S1367       S  0.67901752  0.66715633  0.37513812    -0.33200
S1368       S  0.58701557  0.57896808  0.28752924    -0.33200
H1369       H  0.57775372  0.59635368  0.24802041     0.28200
H1370       H  0.68679847  0.65030774  0.41633044     0.28200
H1371       H  0.66102561  0.65532842  0.27632787     0.18800
H1372       H  0.60483163  0.59133761  0.38590413     0.18800
C1373       C  0.71583582  0.61218712  0.17716317    -0.07100
C1374       C  0.72075424  0.59268326  0.21632209    -0.18200
C1375       C  0.74514497  0.59406624  0.24655271     0.10100
C1376       C  0.76578730  0.61526253  0.23783195    -0.07000
C1377       C  0.76043018  0.63577441  0.20075194    -0.18200
C1378       C  0.73593237  0.63445514  0.17036270     0.10200
S1379       S  0.74947032  0.56903256  0.29721282    -0.33200
S1380       S  0.73251718  0.66105630  0.12239635    -0.33200
H1381       H  0.72305780  0.64177375  0.08561086     0.28200
H1382       H  0.72345033  0.55456257  0.29083057     0.28200
H1383       H  0.70508508  0.57636781  0.22411606     0.18800
H1384       H  0.77638332  0.65190248  0.19310013     0.18800
C1385       C  0.21700516  0.84313568  0.67489909    -0.07100
C1386       C  0.23561834  0.84001556  0.63445330    -0.18200
C1387       C  0.26504122  0.83785318  0.64256553     0.10100
C1388       C  0.27611292  0.84034176  0.69178996    -0.07000
C1389       C  0.25727471  0.83898500  0.73218781    -0.18200
C1390       C  0.22770723  0.83981681  0.72408172     0.10200
S1391       S  0.28762699  0.83352128  0.58853935    -0.33200
S1392       S  0.20375248  0.83811091  0.77687030    -0.33200
H1393       H  0.22456101  0.83200653  0.81311228     0.28200
H1394       H  0.31030308  0.82101253  0.61491893     0.28200
H1395       H  0.22752768  0.84130142  0.59657066     0.18800
H1396       H  0.26562988  0.83993686  0.76989307     0.18800
C1397       C  0.00665833  0.87594296  0.73044705    -0.07100
C1398       C  0.99375984  0.90279927  0.73375482    -0.18200
C1399       C  0.96458852  0.90559852  0.74456436     0.10100
C1400       C  0.94796958  0.88097948  0.75456703    -0.07000
C1401       C  0.96184801  0.85434889  0.75488024    -0.18200
C1402       C  0.99064859  0.85156909  0.74262254     0.10200
S1403       S  0.94982910  0.94084264  0.74068582    -0.33200
S1404       S  0.00559114  0.81620115  0.74262714    -0.33200
H1405       H  0.03338026  0.82454575  0.75592993     0.28200
H1406       H  0.92932324  0.93300884  0.70476298     0.28200
H1407       H  0.00605462  0.92161389  0.72447234     0.18800
H1408       H  0.95002508  0.83514580  0.76345815     0.18800
C1409       C  0.12754199  0.95884992  0.74550956    -0.07100
C1410       C  0.15384412  0.97338990  0.74509651    -0.18200
C1411       C  0.15565323  0.00272047  0.75368385     0.10100
C1412       C  0.13074266  0.01850333  0.76384257    -0.07000
C1413       C  0.10425620  0.00468538  0.76126611    -0.18200
C1414       C  0.10231707  0.97518450  0.75278897     0.10200
S1415       S  0.19050578  0.01891001  0.75072987    -0.33200
S1416       S  0.06708975  0.95991073  0.75502269    -0.33200
H1417       H  0.07410728  0.94074399  0.79343637     0.28200
H1418       H  0.18085087  0.04533933  0.73294170     0.28200
H1419       H  0.17344984  0.96183302  0.73839609     0.18800
H1420       H  0.08500232  0.01662629  0.76911170     0.18800
C1421       C  0.27384017  0.84817296  0.20428953    -0.07100
C1422       C  0.26505024  0.83900101  0.15641754    -0.18200
C1423       C  0.23616152  0.83932267  0.14236747     0.10100
C1424       C  0.21590184  0.85080871  0.17566369    -0.07000
C1425       C  0.22444201  0.85666187  0.22528148    -0.18200
C1426       C  0.25297579  0.85492067  0.24005126     0.10200
S1427       S  0.22684774  0.82759018  0.08040998    -0.33200
S1428       S  0.26192169  0.86490467  0.30321794    -0.33200
H1429       H  0.28573140  0.84687835  0.30650061     0.28200
H1430       H  0.20297331  0.81192094  0.09655049     0.28200
H1431       H  0.28098529  0.83338131  0.12871387     0.18800
H1432       H  0.20901610  0.86429932  0.25229362     0.18800
C1433       C  0.94849744  0.87888122  0.25306471    -0.07100
C1434       C  0.96262930  0.85291161  0.26114140    -0.18200
C1435       C  0.99197596  0.85028449  0.25401145     0.10100
C1436       C  0.00789025  0.87402961  0.23807156    -0.07000
C1437       C  0.99437218  0.90047209  0.23320279    -0.18200
C1438       C  0.96481926  0.90308927  0.23964768     0.10200
S1439       S  0.00793507  0.81602204  0.26558729    -0.33200
S1440       S  0.94915981  0.93708599  0.22533941    -0.33200
H1441       H  0.92713662  0.92553417  0.19585244     0.28200
H1442       H  0.03464224  0.82681329  0.28035441     0.28200
H1443       H  0.95065716  0.83428962  0.27261783     0.18800
H1444       H  0.00654019  0.91871779  0.22053916     0.18800
C1445       C  0.12629203  0.96103616  0.23968521    -0.07100
C1446       C  0.15249935  0.97557354  0.24418825    -0.18200
C1447       C  0.15387013  0.00439719  0.25693029     0.10100
C1448       C  0.12858346  0.01950052  0.26713361    -0.07000
C1449       C  0.10228487  0.00600821  0.25877267    -0.18200
C1450       C  0.10081470  0.97720110  0.24441739     0.10200
S1451       S  0.18866998  0.02076051  0.25930267    -0.33200
S1452       S  0.06578451  0.96248628  0.23478924    -0.33200
H1453       H  0.07263984  0.95127504  0.18739134     0.28200
H1454       H  0.17946022  0.04788178  0.24415517     0.28200
H1455       H  0.17239399  0.96431805  0.23863137     0.18800
H1456       H  0.08271044  0.01769888  0.26516135     0.18800
C1457       C  0.11093909  0.87064226  0.88183100    -0.07100
C1458       C  0.09211523  0.85069037  0.90244121    -0.18200
C1459       C  0.08970077  0.84754801  0.95439469     0.10100
C1460       C  0.10635365  0.86487350  0.98673779    -0.07000
C1461       C  0.12478872  0.88507092  0.96601664    -0.18200
C1462       C  0.12672756  0.88861375  0.91425767     0.10200
S1463       S  0.06600528  0.82014051  0.97681200    -0.33200
S1464       S  0.14852984  0.91760435  0.89199995    -0.33200
H1465       H  0.13043576  0.92454335  0.85192739     0.28200
H1466       H  0.08361588  0.81209884  0.01669549     0.28200
H1467       H  0.08005448  0.83672738  0.87798703     0.18800
H1468       H  0.13691847  0.89901312  0.99040059     0.18800
C1469       C  0.11612094  0.87403346  0.48697907    -0.07100
C1470       C  0.09870060  0.89210150  0.45827481    -0.18200
C1471       C  0.09991440  0.89216676  0.40582762     0.10100
C1472       C  0.11861413  0.87335135  0.38104998    -0.07000
C1473       C  0.13652968  0.85581327  0.40950415    -0.18200
C1474       C  0.13566250  0.85603967  0.46182555     0.10200
S1475       S  0.07843083  0.91721048  0.37120908    -0.33200
S1476       S  0.15879678  0.83157235  0.49374758    -0.33200
H1477       H  0.17353303  0.85338806  0.51904943     0.28200
H1478       H  0.06883733  0.93306541  0.41263011     0.28200
H1479       H  0.08382710  0.90610856  0.47709944     0.18800
H1480       H  0.15133671  0.84166887  0.39071273     0.18800
C1481       C  0.21656793  0.66552872  0.95724751    -0.07100
C1482       C  0.22336233  0.66328871  0.90591902    -0.18200
C1483       C  0.25158212  0.66404621  0.88888538     0.10100
C1484       C  0.27373348  0.66753755  0.92368638    -0.07000
C1485       C  0.26673835  0.67351831  0.97397663    -0.18200
C1486       C  0.23842551  0.67271114  0.99106238     0.10200
S1487       S  0.25813541  0.65585467  0.82399075    -0.33200
S1488       S  0.23211758  0.67688788  0.05708108    -0.33200
H1489       H  0.20631033  0.69162908  0.05117172     0.28200
H1490       H  0.28333754  0.67191427  0.82041021     0.28200
H1491       H  0.20675044  0.65830081  0.87919204     0.18800
H1492       H  0.28370041  0.67616706  0.00111833     0.18800
C1493       C  0.00914627  0.63549236  0.89761357    -0.07100
C1494       C  0.99663038  0.66047732  0.87964054    -0.18200
C1495       C  0.96789781  0.66133503  0.86580005     0.10100
C1496       C  0.95032905  0.63708016  0.87305077    -0.07000
C1497       C  0.96344025  0.61145225  0.88768737    -0.18200
C1498       C  0.99258332  0.61037277  0.89978288     0.10200
S1499       S  0.95539753  0.69393873  0.83808661    -0.33200
S1500       S  0.00678344  0.57674935  0.92046377    -0.33200
H1501       H  0.02596714  0.58800623  0.95569941     0.28200
H1502       H  0.93715543  0.68025202  0.80380418     0.28200
H1503       H  0.00944149  0.67960674  0.87633608     0.18800
H1504       H  0.95065462  0.59243410  0.89252153     0.18800
C1505       C  0.09964326  0.77829645  0.10385250    -0.07100
C1506       C  0.12167216  0.77183436  0.06984786    -0.18200
C1507       C  0.12080112  0.74733481  0.03941066     0.10100
C1508       C  0.09760555  0.72802235  0.04343878    -0.07000
C1509       C  0.07600832  0.73442716  0.07860151    -0.18200
C1510       C  0.07691156  0.75881094  0.10875032     0.10200
S1511       S  0.14927758  0.74302837  0.99476871    -0.33200
S1512       S  0.04855903  0.76347843  0.15371599    -0.33200
H1513       H  0.06502825  0.77891153  0.18843538     0.28200
H1514       H  0.13103408  0.73503708  0.95537964     0.28200
H1515       H  0.13884157  0.78698809  0.06443656     0.18800
H1516       H  0.05837425  0.71985912  0.08411728     0.18800
C1517       C  0.27384699  0.66336582  0.42761548    -0.07100
C1518       C  0.26556878  0.66726487  0.47794007    -0.18200
C1519       C  0.23679692  0.66671222  0.49252263     0.10100
C1520       C  0.21566870  0.66171940  0.45615482    -0.07000
C1521       C  0.22389666  0.66067378  0.40534052    -0.18200
C1522       C  0.25258729  0.66149501  0.39074774     0.10200
S1523       S  0.22879930  0.66840273  0.55830464    -0.33200
S1524       S  0.26077895  0.65583753  0.32562756    -0.33200
H1525       H  0.28465145  0.67392121  0.32514320     0.28200
H1526       H  0.20511814  0.68634629  0.55238264     0.28200
H1527       H  0.28180702  0.66859093  0.50668337     0.18800
H1528       H  0.20788796  0.65710909  0.37679418     0.18800
C1529       C  0.00406008  0.63583901  0.40443356    -0.07100
C1530       C  0.99119030  0.65997066  0.38385293    -0.18200
C1531       C  0.96231373  0.66002784  0.37104482     0.10100
C1532       C  0.94526191  0.63580519  0.38107078    -0.07000
C1533       C  0.95857583  0.61098916  0.39862949    -0.18200
C1534       C  0.98772474  0.61078290  0.41064236     0.10200
S1535       S  0.94867592  0.69152938  0.34115555    -0.33200
S1536       S  0.00215186  0.57850250  0.43667207    -0.33200
H1537       H  0.02266666  0.59140419  0.46758319     0.28200
H1538       H  0.92978170  0.67658741  0.30973072     0.28200
H1539       H  0.00375573  0.67906155  0.37800293     0.18800
H1540       H  0.94588779  0.59216503  0.40598646     0.18800
C1541       C  0.11145724  0.64301003  0.64822923    -0.07100
C1542       C  0.13223019  0.62475893  0.66775602    -0.18200
C1543       C  0.13566212  0.62167743  0.71956966     0.10100
C1544       C  0.11846639  0.63778853  0.75288717    -0.07000
C1545       C  0.09767687  0.65587124  0.73331474    -0.18200
C1546       C  0.09429461  0.65899843  0.68175907     0.10200
S1547       S  0.16122493  0.59571473  0.74064197    -0.33200
S1548       S  0.06896897  0.68527693  0.66134528    -0.33200
H1549       H  0.08701955  0.69578897  0.62376700     0.28200
H1550       H  0.14506421  0.58677034  0.78210223     0.28200
H1551       H  0.14517159  0.61208361  0.64256290     0.18800
H1552       H  0.08472347  0.66861165  0.75840564     0.18800
C1553       C  0.10998678  0.64705252  0.25289521    -0.07100
C1554       C  0.09556907  0.62423311  0.23031673    -0.18200
C1555       C  0.09514499  0.62096551  0.17821093     0.10100
C1556       C  0.10931477  0.64107460  0.14758054    -0.07000
C1557       C  0.12327789  0.66416870  0.17025034    -0.18200
C1558       C  0.12342449  0.66756297  0.22228031     0.10200
S1559       S  0.07711495  0.59006825  0.15339537    -0.33200
S1560       S  0.14015118  0.69910761  0.24735054    -0.33200
H1561       H  0.12281984  0.70091141  0.29023857     0.28200
H1562       H  0.09491442  0.58688125  0.11137564     0.28200
H1563       H  0.08572946  0.60807056  0.25349216     0.18800
H1564       H  0.13312837  0.68037305  0.14715606     0.18800
C1565       C  0.09554051  0.73196282  0.53671278    -0.07100
C1566       C  0.07062149  0.74215113  0.56050579    -0.18200
C1567       C  0.07044038  0.76720285  0.58892883     0.10100
C1568       C  0.09553112  0.78364933  0.59331428    -0.07000
C1569       C  0.12039527  0.77391878  0.56931074    -0.18200
C1570       C  0.12060921  0.74879686  0.54056482     0.10200
S1571       S  0.03765303  0.77624514  0.62055521    -0.33200
S1572       S  0.15330809  0.74038621  0.50839518    -0.33200
H1573       H  0.13959902  0.73317131  0.46327564     0.28200
H1574       H  0.05094263  0.78876704  0.66235464     0.28200
H1575       H  0.05108618  0.72985581  0.55913629     0.18800
H1576       H  0.13958658  0.78674843  0.57089863     0.18800
C1577       C  0.15395726  0.22678950  0.82878481    -0.07100
C1578       C  0.15052345  0.23410234  0.77798745    -0.18200
C1579       C  0.15045219  0.26242839  0.76211908     0.10100
C1580       C  0.15460829  0.28422302  0.79744169    -0.07000
C1581       C  0.16136008  0.27683955  0.84714044    -0.18200
C1582       C  0.16120601  0.24839016  0.86312122     0.10200
S1583       S  0.14022141  0.26946071  0.69839045    -0.33200
S1584       S  0.16633511  0.24146794  0.92861970    -0.33200
H1585       H  0.18231352  0.21659343  0.92066201     0.28200
H1586       H  0.15578875  0.29488266  0.69399939     0.28200
H1587       H  0.14529868  0.21775363  0.75087905     0.18800
H1588       H  0.16427271  0.29354347  0.87474410     0.18800
C1589       C  0.13173690  0.49330242  0.86450357    -0.07100
C1590       C  0.15743321  0.50721206  0.87482169    -0.18200
C1591       C  0.15794892  0.53545770  0.89093965     0.10100
C1592       C  0.13206701  0.55108515  0.89424853    -0.07000
C1593       C  0.10618399  0.53646763  0.88685592    -0.18200
C1594       C  0.10575233  0.50784077  0.87203343     0.10200
S1595       S  0.19250748  0.54968600  0.90710052    -0.33200
S1596       S  0.07149952  0.49182522  0.85970487    -0.33200
H1597       H  0.08030349  0.47669509  0.81693615     0.28200
H1598       H  0.18246556  0.56455032  0.94936440     0.28200
H1599       H  0.17738958  0.49582733  0.87061637     0.18800
H1600       H  0.08612633  0.54775894  0.88972133     0.18800
C1601       C  0.15681290  0.28735968  0.30014873    -0.07100
C1602       C  0.15820766  0.27904505  0.35072853    -0.18200
C1603       C  0.15756693  0.25031526  0.36456646     0.10100
C1604       C  0.15458530  0.22941953  0.32717831    -0.07000
C1605       C  0.15647707  0.23762695  0.27657320    -0.18200
C1606       C  0.15804285  0.26632053  0.26274378     0.10200
S1607       S  0.15655275  0.24186813  0.43016423    -0.33200
S1608       S  0.15759084  0.27485347  0.19714251    -0.33200
H1609       H  0.17555210  0.29868431  0.20185047     0.28200
H1610       H  0.17468206  0.21820769  0.42566188     0.28200
H1611       H  0.15751731  0.29513402  0.37985618     0.18800
H1612       H  0.15467780  0.22163189  0.24743452     0.18800
C1613       C  0.13034517  0.49669385  0.36145127    -0.07100
C1614       C  0.10368157  0.51011080  0.36234317    -0.18200
C1615       C  0.10128045  0.53938725  0.37164224     0.10100
C1616       C  0.12603436  0.55561353  0.38256164    -0.07000
C1617       C  0.15248811  0.54156617  0.38456625    -0.18200
C1618       C  0.15490188  0.51250384  0.37412392     0.10200
S1619       S  0.06648369  0.55489468  0.36392414    -0.33200
S1620       S  0.18996298  0.49688339  0.37740594    -0.33200
H1621       H  0.18062896  0.46953828  0.39112661     0.28200
H1622       H  0.07624251  0.57726414  0.33347569     0.28200
H1623       H  0.08479745  0.49812096  0.35209301     0.18800
H1624       H  0.17164808  0.55340220  0.39370136     0.18800
C1625       C  0.13212665  0.38879366  0.50987220    -0.07100
C1626       C  0.12454456  0.36502064  0.53937874    -0.18200
C1627       C  0.12256036  0.36663625  0.59148793     0.10100
C1628       C  0.12879331  0.39254341  0.61582531    -0.07000
C1629       C  0.13556415  0.41651188  0.58641881    -0.18200
C1630       C  0.13748787  0.41496388  0.53430207     0.10200
S1631       S  0.11086479  0.33516343  0.62407422    -0.33200
S1632       S  0.14810503  0.44695004  0.50217523    -0.33200
H1633       H  0.16921840  0.43324426  0.47351251     0.28200
H1634       H  0.09367956  0.35000171  0.65852689     0.28200
H1635       H  0.11944472  0.34485796  0.52176392     0.18800
H1636       H  0.14062740  0.43663297  0.60423858     0.18800
C1637       C  0.13263165  0.39088363  0.11492912    -0.07100
C1638       C  0.15339355  0.37340012  0.09280115    -0.18200
C1639       C  0.15572805  0.37103782  0.04077981     0.10100
C1640       C  0.13665131  0.38614605  0.00986822    -0.07000
C1641       C  0.11579814  0.40347317  0.03188870    -0.18200
C1642       C  0.11327463  0.40563434  0.08388978     0.10200
S1643       S  0.18426336  0.34944197  0.01613000    -0.33200
S1644       S  0.08398789  0.42631138  0.10821710    -0.33200
H1645       H  0.07952639  0.40912881  0.15054080     0.28200
H1646       H  0.18846244  0.36560292  0.97252441     0.28200
H1647       H  0.16872524  0.36245000  0.11612840     0.18800
H1648       H  0.10052770  0.41440699  0.00840856     0.18800
C1649       C  0.33664744  0.28595011  0.57288904    -0.07100
C1650       C  0.33560486  0.26783865  0.61420672    -0.18200
C1651       C  0.33471275  0.23818446  0.60767633     0.10100
C1652       C  0.33599886  0.22615438  0.55889037    -0.07000
C1653       C  0.33351996  0.24425961  0.51777698    -0.18200
C1654       C  0.33326197  0.27392187  0.52436477     0.10200
S1655       S  0.33321230  0.21664095  0.66322533    -0.33200
S1656       S  0.32962620  0.29540045  0.46907288    -0.33200
H1657       H  0.31641071  0.31830922  0.49389855     0.28200
H1658       H  0.31914108  0.19365034  0.64008433     0.28200
H1659       H  0.33736406  0.27664876  0.65158429     0.18800
H1660       H  0.33367170  0.23542217  0.48028512     0.18800
C1661       C  0.44481241  0.37665903  0.49896354    -0.07100
C1662       C  0.45897334  0.40144552  0.48304635    -0.18200
C1663       C  0.48833074  0.40139297  0.47256804     0.10100
C1664       C  0.50420808  0.37606347  0.47855514    -0.07000
C1665       C  0.49036198  0.35175659  0.49682539    -0.18200
C1666       C  0.46121545  0.35195049  0.50822320     0.10200
S1667       S  0.50358978  0.43386927  0.44880422    -0.33200
S1668       S  0.44655265  0.32023747  0.53608447    -0.33200
H1669       H  0.42804138  0.33498616  0.56849722     0.28200
H1670       H  0.52418307  0.42107698  0.41790868     0.28200
H1671       H  0.44685668  0.42066144  0.47622338     0.18800
H1672       H  0.50244020  0.33237850  0.50238469     0.18800
C1673       C  0.36322516  0.49855026  0.51534509    -0.07100
C1674       C  0.33827352  0.51320614  0.50310644    -0.18200
C1675       C  0.33874183  0.54211092  0.49130397     0.10100
C1676       C  0.36459310  0.55769802  0.49477949    -0.07000
C1677       C  0.38997732  0.54262069  0.50393343    -0.18200
C1678       C  0.38958696  0.51323899  0.51399701     0.10200
S1679       S  0.30560269  0.55739354  0.47043855    -0.33200
S1680       S  0.42314837  0.49623340  0.52745385    -0.33200
H1681       H  0.41251639  0.47758728  0.56402611     0.28200
H1682       H  0.31854482  0.57438474  0.43354199     0.28200
H1683       H  0.31811080  0.50189544  0.50236814     0.18800
H1684       H  0.41008080  0.55396930  0.50573278     0.18800
C1685       C  0.27041922  0.40589983  0.65722793    -0.07100
C1686       C  0.26240815  0.42920055  0.68766596    -0.18200
C1687       C  0.23817955  0.42857530  0.71832790     0.10100
C1688       C  0.22045840  0.40426311  0.71896093    -0.07000
C1689       C  0.22830339  0.38076579  0.68920720    -0.18200
C1690       C  0.25264160  0.38137801  0.65816381     0.10200
S1691       S  0.23152179  0.45944152  0.75693772    -0.33200
S1692       S  0.25878427  0.35060549  0.61930215    -0.33200
H1693       H  0.26524364  0.36663163  0.57634941     0.28200
H1694       H  0.21857437  0.44434773  0.79628256     0.28200
H1695       H  0.27563043  0.44809818  0.68913583     0.18800
H1696       H  0.21446409  0.36228395  0.68794218     0.18800
C1697       C  0.33711035  0.28739237  0.07030165    -0.07100
C1698       C  0.33595771  0.26926956  0.11149891    -0.18200
C1699       C  0.33553081  0.23968188  0.10479948     0.10100
C1700       C  0.33717339  0.22779733  0.05590017    -0.07000
C1701       C  0.33476563  0.24591946  0.01485133    -0.18200
C1702       C  0.33427674  0.27551439  0.02160317     0.10200
S1703       S  0.33426094  0.21818784  0.16037708    -0.33200
S1704       S  0.33138816  0.29707855  0.96629061    -0.33200
H1705       H  0.31769692  0.31986068  0.99066307     0.28200
H1706       H  0.32027136  0.19518224  0.13718428     0.28200
H1707       H  0.33742798  0.27804514  0.14895204     0.18800
H1708       H  0.33532646  0.23716728  0.97731044     0.18800
C1709       C  0.44571406  0.37752208  0.99312088    -0.07100
C1710       C  0.45962876  0.35102251  0.99584560    -0.18200
C1711       C  0.48917337  0.34863523  0.99021841     0.10100
C1712       C  0.50576072  0.37327508  0.98206975    -0.07000
C1713       C  0.49226508  0.39984525  0.98090185    -0.18200
C1714       C  0.46253595  0.40218715  0.98485413     0.10200
S1715       S  0.50441519  0.31347854  0.99400475    -0.33200
S1716       S  0.44756933  0.43681338  0.97379759    -0.33200
H1717       H  0.42642284  0.42675662  0.94085133     0.28200
H1718       H  0.53068763  0.32237708  0.01401830     0.28200
H1719       H  0.44741689  0.33179086  0.00235001     0.18800
H1720       H  0.50476950  0.41874109  0.97308756     0.18800
C1721       C  0.36098361  0.49936115  0.01969642    -0.07100
C1722       C  0.33504190  0.51318541  0.01109359    -0.18200
C1723       C  0.33390101  0.54236397  0.00077787     0.10100
C1724       C  0.35955878  0.55847493  0.99997275    -0.07000
C1725       C  0.38564854  0.54415645  0.00633903    -0.18200
C1726       C  0.38660622  0.51501109  0.01682646     0.10200
S1727       S  0.29941435  0.55807963  0.98827605    -0.33200
S1728       S  0.42096961  0.49978865  0.03025263    -0.33200
H1729       H  0.41140760  0.48137338  0.06809454     0.28200
H1730       H  0.28334436  0.53277997  0.98834953     0.28200
H1731       H  0.31547830  0.50096911  0.01321880     0.18800
H1732       H  0.40549416  0.55598866  0.00583234     0.18800
C1733       C  0.36011550  0.39390974  0.75754124    -0.07100
C1734       C  0.33881695  0.37725900  0.77985167    -0.18200
C1735       C  0.33460509  0.37759242  0.83165709     0.10100
C1736       C  0.35264427  0.39421885  0.86252044    -0.07000
C1737       C  0.37362637  0.41125144  0.84026972    -0.18200
C1738       C  0.37767564  0.41115553  0.78837481     0.10200
S1739       S  0.30508021  0.35723313  0.85604712    -0.33200
S1740       S  0.40635760  0.43269493  0.76406545    -0.33200
H1741       H  0.41233008  0.41486335  0.72302018     0.28200
H1742       H  0.30036528  0.37481150  0.89794475     0.28200
H1743       H  0.32435012  0.36503971  0.75655708     0.18800
H1744       H  0.38800155  0.42352932  0.86363523     0.18800
C1745       C  0.36202614  0.39231421  0.25774757    -0.07100
C1746       C  0.33992776  0.37609044  0.27880294    -0.18200
C1747       C  0.33518879  0.37585454  0.33052392     0.10100
C1748       C  0.35316698  0.39187666  0.36248833    -0.07000
C1749       C  0.37496784  0.40838455  0.34149734    -0.18200
C1750       C  0.37986661  0.40845575  0.28987837     0.10200
S1751       S  0.30522148  0.35548291  0.35321424    -0.33200
S1752       S  0.41014732  0.42852424  0.26778110    -0.33200
H1753       H  0.41622390  0.41019861  0.22745143     0.28200
H1754       H  0.30043864  0.37225787  0.39606975     0.28200
H1755       H  0.32537330  0.36454095  0.25464306     0.18800
H1756       H  0.38941176  0.42000965  0.36575374     0.18800
C1757       C  0.27280417  0.40755335  0.15678478    -0.07100
C1758       C  0.26454458  0.38326308  0.18382927    -0.18200
C1759       C  0.24019631  0.38318379  0.21476707     0.10100
C1760       C  0.22277263  0.40783888  0.21830295    -0.07000
C1761       C  0.23147497  0.43213137  0.19116546    -0.18200
C1762       C  0.25570282  0.43216983  0.16051128     0.10200
S1763       S  0.23340659  0.35113747  0.24954254    -0.33200
S1764       S  0.26306374  0.46426122  0.12580281    -0.33200
H1765       H  0.27537215  0.45036739  0.08439733     0.28200
H1766       H  0.22896280  0.36567493  0.29499528     0.28200
H1767       H  0.27801367  0.36454938  0.18292137     0.18800
H1768       H  0.21876923  0.45134298  0.19220701     0.18800
C1769       C  0.77251900  0.16881868  0.68417996    -0.07100
C1770       C  0.76510343  0.16962488  0.73537231    -0.18200
C1771       C  0.73665566  0.16832328  0.75126178     0.10100
C1772       C  0.71494297  0.16600645  0.71530629    -0.07000
C1773       C  0.72212355  0.16881775  0.66428448    -0.18200
C1774       C  0.75061145  0.17053846  0.64841364     0.10200
S1775       S  0.72976938  0.16528543  0.81731430    -0.33200
S1776       S  0.75765721  0.17106149  0.58223689    -0.33200
H1777       H  0.78203029  0.18835247  0.58615885     0.28200
H1778       H  0.70457827  0.18140033  0.81631549     0.28200
H1779       H  0.78174448  0.16867309  0.76339624     0.18800
H1780       H  0.70548819  0.16749051  0.63626403     0.18800
C1781       C  0.86063035  0.00212092  0.77659698    -0.07100
C1782       C  0.83611038  0.01555963  0.75842821    -0.18200
C1783       C  0.83593732  0.04470318  0.74776672     0.10100
C1784       C  0.86053667  0.06139120  0.75749919    -0.07000
C1785       C  0.88533850  0.04768687  0.77440731    -0.18200
C1786       C  0.88558743  0.01839694  0.78435783     0.10200
S1787       S  0.80398439  0.05891122  0.71999688    -0.33200
S1788       S  0.91788985  0.00351795  0.80968042    -0.33200
H1789       H  0.90461992  0.98330429  0.84062668     0.28200
H1790       H  0.81862751  0.07697824  0.68681062     0.28200
H1791       H  0.81695442  0.00313749  0.75202973     0.18800
H1792       H  0.90434739  0.06007559  0.78213281     0.18800
C1793       C  0.98264574  0.14406662  0.74594244    -0.07100
C1794       C  0.99517493  0.11735185  0.75428732    -0.18200
C1795       C  0.02469546  0.11464521  0.76289170     0.10100
C1796       C  0.04228824  0.13930887  0.76396230    -0.07000
C1797       C  0.02882865  0.16605263  0.75976661    -0.18200
C1798       C  0.99961030  0.16865679  0.75116230     0.10200
S1799       S  0.03838653  0.07914460  0.77000516    -0.33200
S1800       S  0.98525822  0.20419191  0.74703893    -0.33200
H1801       H  0.95832566  0.19721416  0.76679222     0.28200
H1802       H  0.05636196  0.08133955  0.72800108     0.28200
H1803       H  0.98222694  0.09831733  0.75099850     0.18800
H1804       H  0.04118342  0.18549408  0.76230051     0.18800
C1805       C  0.77212333  0.16565487  0.18115360    -0.07100
C1806       C  0.76439873  0.17051734  0.23151372    -0.18200
C1807       C  0.73584780  0.16914233  0.24749804     0.10100
C1808       C  0.71443507  0.16227883  0.21256682    -0.07000
C1809       C  0.72197204  0.16050386  0.16150705    -0.18200
C1810       C  0.75038788  0.16198224  0.14552707     0.10200
S1811       S  0.72865808  0.17240139  0.31340094    -0.33200
S1812       S  0.75770249  0.15472927  0.08052833    -0.33200
H1813       H  0.78302890  0.17064689  0.07829092     0.28200
H1814       H  0.70347539  0.18811588  0.30704733     0.28200
H1815       H  0.78099266  0.17310680  0.25935806     0.18800
H1816       H  0.70574573  0.15561035  0.13397711     0.18800
C1817       C  0.86337244  0.99898893  0.26378385    -0.07100
C1818       C  0.88922886  0.01364893  0.26935329    -0.18200
C1819       C  0.89098491  0.04306015  0.26097798     0.10100
C1820       C  0.86621085  0.05832076  0.24668586    -0.07000
C1821       C  0.84086861  0.04295885  0.23812217    -0.18200
C1822       C  0.83923590  0.01367604  0.24632586     0.10200
S1823       S  0.92462546  0.05997033  0.27417456    -0.33200
S1824       S  0.80550918  0.99631008  0.23499959    -0.33200
H1825       H  0.81712974  0.96968633  0.22217397     0.28200
H1826       H  0.92761504  0.07044619  0.22519262     0.28200
H1827       H  0.90780904  0.00240615  0.28299464     0.18800
H1828       H  0.82180222  0.05395548  0.22605790     0.18800
C1829       C  0.98404380  0.14619856  0.24352619    -0.07100
C1830       C  0.99714163  0.11936850  0.24249124    -0.18200
C1831       C  0.02675362  0.11649488  0.24860469     0.10100
C1832       C  0.04376933  0.14093011  0.25813884    -0.07000
C1833       C  0.03006540  0.16749809  0.26218703    -0.18200
C1834       C  0.00067510  0.17036304  0.25507825     0.10200
S1835       S  0.04149306  0.08152898  0.23892962    -0.33200
S1836       S  0.98565481  0.20554220  0.26110338    -0.33200
H1837       H  0.95868451  0.19646787  0.27777416     0.28200
H1838       H  0.06271332  0.09101295  0.20562974     0.28200
H1839       H  0.98454470  0.10074243  0.23312958     0.18800
H1840       H  0.04239691  0.18645168  0.27046667     0.18800
C1841       C  0.87393201  0.15420384  0.89196301    -0.07100
C1842       C  0.85242258  0.14247481  0.92247038    -0.18200
C1843       C  0.85552298  0.14043203  0.97426901     0.10100
C1844       C  0.88042312  0.15113601  0.99717137    -0.07000
C1845       C  0.90187197  0.16311040  0.96678313    -0.18200
C1846       C  0.89887905  0.16492919  0.91481532     0.10200
S1847       S  0.82768973  0.12229429  0.00818355    -0.33200
S1848       S  0.92713786  0.18217545  0.88050520    -0.33200
H1849       H  0.90876294  0.19660979  0.84769987     0.28200
H1850       H  0.84648203  0.10761808  0.03992668     0.28200
H1851       H  0.83335066  0.13360568  0.90566149     0.18800
H1852       H  0.92092147  0.17192322  0.98376182     0.18800
C1853       C  0.87431435  0.14525108  0.39192358    -0.07100
C1854       C  0.85305736  0.13226613  0.42158598    -0.18200
C1855       C  0.85540778  0.13071658  0.47366864     0.10100
C1856       C  0.87923980  0.14302723  0.49737840    -0.07000
C1857       C  0.90053274  0.15585263  0.46788083    -0.18200
C1858       C  0.89852622  0.15697482  0.41569718     0.10200
S1859       S  0.82796369  0.11176814  0.50720147    -0.33200
S1860       S  0.92633122  0.17501816  0.38114607    -0.33200
H1861       H  0.94683328  0.17490644  0.41951981     0.28200
H1862       H  0.84645076  0.10015653  0.54312844     0.28200
H1863       H  0.83464224  0.12254016  0.40400432     0.18800
H1864       H  0.91857495  0.16590276  0.48603285     0.18800
C1865       C  0.77383611  0.34634752  0.95445526    -0.07100
C1866       C  0.76474904  0.33960260  0.90550832    -0.18200
C1867       C  0.73584872  0.34115247  0.89161404     0.10100
C1868       C  0.71559688  0.35063188  0.92689690    -0.07000
C1869       C  0.72436838  0.35418249  0.97701021    -0.18200
C1870       C  0.75303501  0.35187669  0.99107439     0.10200
S1871       S  0.72678794  0.33460812  0.82722957    -0.33200
S1872       S  0.76237357  0.35995437  0.05476904    -0.33200
H1873       H  0.78446879  0.33984664  0.05595114     0.28200
H1874       H  0.70197094  0.31913385  0.83855849     0.28200
H1875       H  0.78056980  0.33544648  0.87681795     0.18800
H1876       H  0.70899668  0.36075692  0.00502998     0.18800
C1877       C  0.86418481  0.45929683  0.88477287    -0.07100
C1878       C  0.83769577  0.47243427  0.87565166    -0.18200
C1879       C  0.83527804  0.50164961  0.86756012     0.10100
C1880       C  0.85994644  0.51891497  0.86739358    -0.07000
C1881       C  0.88625387  0.50646293  0.87931445    -0.18200
C1882       C  0.88864783  0.47709290  0.88841472     0.10200
S1883       S  0.79983379  0.51543653  0.85774869    -0.33200
S1884       S  0.92362810  0.46406091  0.90323922    -0.33200
H1885       H  0.91428313  0.44899123  0.94561575     0.28200
H1886       H  0.80487677  0.54142697  0.88249732     0.28200
H1887       H  0.81835491  0.45984899  0.87395717     0.18800
H1888       H  0.90530887  0.51953918  0.87987465     0.18800
C1889       C  0.98665053  0.37536208  0.89823818    -0.07100
C1890       C  0.99877786  0.35140434  0.87531862    -0.18200
C1891       C  0.02759208  0.35093981  0.86152359     0.10100
C1892       C  0.04530694  0.37452997  0.87290530    -0.07000
C1893       C  0.03273189  0.39910461  0.89328924    -0.18200
C1894       C  0.00375148  0.39978591  0.90619855     0.10200
S1895       S  0.04012303  0.31993406  0.82826984    -0.33200
S1896       S  0.99072455  0.43206106  0.93489012    -0.33200
H1897       H  0.96709357  0.42038558  0.95972235     0.28200
H1898       H  0.05938801  0.33501081  0.79780521     0.28200
H1899       H  0.98562991  0.33286082  0.86802627     0.18800
H1900       H  0.04587561  0.41749051  0.90174671     0.18800
C1901       C  0.89434368  0.28707514  0.04507145    -0.07100
C1902       C  0.91182740  0.28376802  0.08775724    -0.18200
C1903       C  0.91011252  0.25973976  0.11862579     0.10100
C1904       C  0.89022830  0.23810644  0.10771575    -0.07000
C1905       C  0.87224231  0.24145833  0.06608341    -0.18200
C1906       C  0.87424908  0.26534548  0.03438665     0.10200
S1907       S  0.93404270  0.25784592  0.17134141    -0.33200
S1908       S  0.85225511  0.26660018  0.97901864    -0.33200
H1909       H  0.84204188  0.23847343  0.98144098     0.28200
H1910       H  0.91722189  0.23924260  0.20009577     0.28200
H1911       H  0.92694188  0.30025736  0.09786546     0.18800
H1912       H  0.85766312  0.22436886  0.05668949     0.18800
C1913       C  0.77500085  0.34730365  0.45479483    -0.07100
C1914       C  0.76629618  0.34254696  0.40489616    -0.18200
C1915       C  0.73728886  0.34110203  0.39166786     0.10100
C1916       C  0.71641680  0.34606919  0.42855994    -0.07000
C1917       C  0.72515764  0.34736105  0.47904048    -0.18200
C1918       C  0.75406674  0.34749890  0.49252966     0.10200
S1919       S  0.72828754  0.33601481  0.32684762    -0.33200
S1920       S  0.76282207  0.35177163  0.55766946    -0.33200
H1921       H  0.78739131  0.33473958  0.55554408     0.28200
H1922       H  0.70439730  0.31880875  0.33683087     0.28200
H1923       H  0.78222101  0.34176655  0.37550843     0.18800
H1924       H  0.70931967  0.35043229  0.50811546     0.18800
C1925       C  0.86652708  0.45808333  0.37741836    -0.07100
C1926       C  0.85749571  0.46765049  0.33054712    -0.18200
C1927       C  0.85589174  0.49664980  0.31951124     0.10100
C1928       C  0.86223358  0.51698105  0.35715623    -0.07000
C1929       C  0.87325866  0.50742001  0.40308966    -0.18200
C1930       C  0.87555380  0.47817494  0.41354579     0.10200
S1931       S  0.84668545  0.50698460  0.25640157    -0.33200
S1932       S  0.88901307  0.46795931  0.47396640    -0.33200
H1933       H  0.87159876  0.44378323  0.47909672     0.28200
H1934       H  0.85077943  0.48015617  0.23401313     0.28200
H1935       H  0.85160101  0.45214473  0.30229075     0.18800
H1936       H  0.87906098  0.52273774  0.43170866     0.18800
C1937       C  0.98642168  0.37390830  0.39222245    -0.07100
C1938       C  0.00073115  0.34876792  0.37971970    -0.18200
C1939       C  0.02943107  0.34896261  0.36571495     0.10100
C1940       C  0.04518651  0.37477752  0.36722705    -0.07000
C1941       C  0.03034217  0.40025078  0.37688142    -0.18200
C1942       C  0.00119894  0.40009860  0.38916473     0.10200
S1943       S  0.04414361  0.31550961  0.34492841    -0.33200
S1944       S  0.98467371  0.43378214  0.40353177    -0.33200
H1945       H  0.96748907  0.42358715  0.44272473     0.28200
H1946       H  0.06064280  0.32775508  0.30656953     0.28200
H1947       H  0.98929052  0.32870336  0.38037308     0.18800
H1948       H  0.04175677  0.42031261  0.37746606     0.18800
C1949       C  0.88321119  0.37330185  0.63805336    -0.07100
C1950       C  0.86106993  0.35764146  0.66008434    -0.18200
C1951       C  0.85910658  0.35465481  0.71196354     0.10100
C1952       C  0.87943000  0.36807468  0.74343277    -0.07000
C1953       C  0.90163282  0.38365919  0.72161762    -0.18200
C1954       C  0.90347435  0.38689031  0.66967232     0.10200
S1955       S  0.83073092  0.33235029  0.73533064    -0.33200
S1956       S  0.93133406  0.40997347  0.64679041    -0.33200
H1957       H  0.91457724  0.42187458  0.60857853     0.28200
H1958       H  0.84639463  0.32164298  0.77596149     0.28200
H1959       H  0.84580515  0.34651256  0.63669125     0.18800
H1960       H  0.91681594  0.39469294  0.74531391     0.18800
C1961       C  0.87793791  0.37388541  0.13807014    -0.07100
C1962       C  0.89368167  0.39339183  0.16704027    -0.18200
C1963       C  0.89403494  0.39187385  0.21927548     0.10100
C1964       C  0.87797869  0.37066456  0.24372715    -0.07000
C1965       C  0.86197666  0.35138361  0.21506706    -0.18200
C1966       C  0.86192585  0.35258717  0.16283254     0.10200
S1967       S  0.91399538  0.41851201  0.25286697    -0.33200
S1968       S  0.84243882  0.32528488  0.13018451    -0.33200
H1969       H  0.82397030  0.34521618  0.10850506     0.28200
H1970       H  0.93122280  0.39844569  0.27733858     0.28200
H1971       H  0.90627410  0.40970127  0.14877998     0.18800
H1972       H  0.84930211  0.33524382  0.23364595     0.18800
C1973       C  0.89445161  0.28293248  0.53364416    -0.07100
C1974       C  0.87137111  0.27702320  0.56570783    -0.18200
C1975       C  0.87092830  0.25272029  0.59665359     0.10100
C1976       C  0.89401637  0.23326035  0.59509330    -0.07000
C1977       C  0.91700088  0.23942368  0.56255279    -0.18200
C1978       C  0.91756042  0.26382085  0.53242382     0.10200
S1979       S  0.84147120  0.24806097  0.63952634    -0.33200
S1980       S  0.94761403  0.26982232  0.49126796    -0.33200
H1981       H  0.96478251  0.24748864  0.50887945     0.28200
H1982       H  0.82445604  0.27039331  0.62145680     0.28200
H1983       H  0.85423473  0.29236556  0.56835943     0.18800
H1984       H  0.93461170  0.22468868  0.55962784     0.18800
loop_ 
_geom_bond_atom_site_label_1 
_geom_bond_atom_site_label_2 
_geom_bond_distance 
_geom_bond_site_symmetry_2 
_ccdc_geom_bond_type 
O1           Ni7   1.892       .  S
O1           C22   1.261       .  A
O2          Ni25   1.915       .  S
O2           C11   1.269       .  A
O3           Ni7   1.906       .  S
O3          Ni25   1.902       .  S
O3          Ni19   1.934       .  S
O3           H26   0.966       .  S
C4           O21   1.289       .  A
C4           O13   1.278       .  A
C4         C1949   1.485       .  S
O5          Ni24   1.928       .  S
O5           C11   1.273       .  A
O6          Ni24   1.905       .  S
O6            C8   1.269       .  A
Ni7          O10   1.909       .  S
Ni7          O12   1.906       .  S
C8           O18   1.277       .  A
C8         C1973   1.490       .  S
O9          Ni25   1.929       .  S
O9           C15   1.281       .  A
O10          C15   1.275       .  A
C11        C1937   1.478       .  S
O12          C14   1.267       .  A
O13         Ni24   1.908       .  S
C14          O20   1.269       .  A
C14        C1925   1.477       .  S
C15        C1964   1.473       .  S
H16          O17   0.966       .  S
O17         Ni25   1.913       .  S
O17         Ni19   1.905       .  S
O17         Ni24   1.885       .  S
O18         Ni19   1.939       .  S
Ni19         O23   1.949       .  S
Ni19         O21   1.940       .  S
O20         Ni25   1.932       .  S
C22          O23   1.274       .  A
C22        C1913   1.488       .  S
O27         Ni33   1.893       .  S
O27          C48   1.260       .  A
O28         Ni51   1.920       .  S
O28          C37   1.271       .  A
O29         Ni33   1.900       .  S
O29         Ni51   1.903       .  S
O29         Ni45   1.927       .  S
O29          H52   0.967       .  S
C30          O47   1.285       .  A
C30          O39   1.280       .  A
C30        C1961   1.482       .  S
O31         Ni50   1.932   1_556  S
O31          C37   1.274       .  A
O32         Ni50   1.913       .  S
O32          C34   1.272       .  A
Ni33         O36   1.908       .  S
Ni33         O38   1.898       .  S
C34          O44   1.278   1_554  A
C34        C1901   1.505       .  S
O35         Ni51   1.935       .  S
O35          C41   1.284       .  A
O36          C41   1.274       .  A
C37        C1889   1.477       .  S
O38          C40   1.266       .  A
O39         Ni50   1.915       .  S
C40          O46   1.271       .  A
C40        C1877   1.503       .  S
C41        C1952   1.479       .  S
H42          O43   0.966       .  S
O43         Ni51   1.920       .  S
O43         Ni45   1.906       .  S
O43         Ni50   1.885   1_556  S
O44         Ni45   1.941       .  S
Ni45         O49   1.950       .  S
Ni45         O47   1.936   1_556  S
O46         Ni51   1.942       .  S
C48          O49   1.275       .  A
C48        C1865   1.483       .  S
O53         Ni59   1.890       .  S
O53          C74   1.259       .  A
O54         Ni77   1.917       .  S
O54          C63   1.269       .  A
O55         Ni59   1.905       .  S
O55         Ni77   1.898       .  S
O55         Ni71   1.931       .  S
O55          H78   0.966       .  S
C56          O73   1.284       .  A
C56          O65   1.280       .  A
C56        C1844   1.482   1_554  S
O57         Ni76   1.931       .  S
O57          C63   1.273       .  A
O58         Ni76   1.904       .  S
O58          C60   1.269       .  A
Ni59         O62   1.909       .  S
Ni59         O64   1.900       .  S
C60          O70   1.278       .  A
C60        C1904   1.484       .  S
O61         Ni77   1.930       .  S
O61          C67   1.282       .  A
O62          C67   1.277       .  A
C63        C1829   1.480       .  S
O64          C66   1.266       .  A
O65         Ni76   1.919       .  S
C66          O72   1.268       .  A
C66        C1820   1.490       .  S
C67        C1853   1.486       .  S
H68          O69   0.966       .  S
O69         Ni77   1.917       .  S
O69         Ni71   1.906       .  S
O69         Ni76   1.888       .  S
O70         Ni71   1.940       .  S
Ni71         O75   1.946       .  S
Ni71         O73   1.929       .  S
O72         Ni77   1.929       .  S
C74          O75   1.273       .  A
C74        C1805   1.481       .  S
O79         Ni85   1.885       .  S
O79         C100   1.257       .  A
O80        Ni103   1.919       .  S
O80          C89   1.270       .  A
O81         Ni85   1.899       .  S
O81        Ni103   1.896       .  S
O81         Ni97   1.934       .  S
O81         H104   0.967       .  S
C82          O99   1.285       .  A
C82          O91   1.279       .  A
C82        C1856   1.478       .  S
O83        Ni102   1.931       .  S
O83          C89   1.274       .  A
O84        Ni102   1.905       .  S
O84          C86   1.271       .  A
Ni85         O88   1.906       .  S
Ni85         O90   1.903       .  S
C86          O96   1.278       .  A
C86        C1976   1.507       .  S
O87        Ni103   1.934       .  S
O87          C93   1.284       .  A
O88          C93   1.277       .  A
C89        C1793   1.484       .  S
O90          C92   1.265       .  A
O91        Ni102   1.913       .  S
C92          O98   1.269       .  A
C92        C1784   1.487       .  S
C93        C1841   1.483       .  S
H94          O95   0.966       .  S
O95        Ni103   1.917       .  S
O95         Ni97   1.908       .  S
O95        Ni102   1.879       .  S
O96         Ni97   1.944       .  S
Ni97        O101   1.952       .  S
Ni97         O99   1.933       .  S
O98        Ni103   1.929       .  S
C100        O101   1.273       .  A
C100       C1769   1.484       .  S
O105       Ni111   1.921       .  S
O105        C126   1.271       .  A
O106       Ni129   1.946       .  S
O106        C115   1.275       .  A
O107       Ni111   1.880       .  S
O107       Ni129   1.901       .  S
O107       Ni123   1.920       .  S
O107        H130   0.966       .  S
C108        O125   1.284       .  A
C108        O117   1.274       .  A
C108       C1736   1.475       .  S
O109       Ni128   1.887   1_554  S
O109        C115   1.261       .  A
O110       Ni128   1.902       .  S
O110        C112   1.267       .  A
Ni111       O114   1.908       .  S
Ni111       O116   1.905       .  S
C112        O122   1.272   1_556  A
C112       C1709   1.494       .  S
O113       Ni129   1.945       .  S
O113        C119   1.289       .  A
O114        C119   1.278       .  A
C115       C1697   1.481       .  S
O116        C118   1.269       .  A
O117       Ni128   1.903       .  S
C118        O124   1.277       .  A
C118       C1757   1.490       .  S
C119       C1745   1.480       .  S
H120        O121   0.966       .  S
O121       Ni129   1.937       .  S
O121       Ni123   1.895       .  S
O121       Ni128   1.895   1_554  S
O122       Ni123   1.935       .  S
Ni123       O127   1.917       .  S
Ni123       O125   1.941   1_554  S
O124       Ni129   1.940       .  S
C126        O127   1.271       .  A
C126       C1721   1.473       .  S
O131       Ni137   1.928       .  S
O131        C152   1.272       .  A
O132       Ni155   1.955       .  S
O132        C141   1.276       .  A
O133       Ni137   1.885       .  S
O133       Ni155   1.909       .  S
O133       Ni149   1.918       .  S
O133        H156   0.966       .  S
C134        O151   1.283       .  A
C134        O143   1.272       .  A
C134       C1748   1.475       .  S
O135       Ni154   1.887       .  S
O135        C141   1.260       .  A
O136       Ni154   1.909       .  S
O136        C138   1.267       .  A
Ni137       O140   1.910       .  S
Ni137       O142   1.907       .  S
C138        O148   1.270       .  A
C138       C1661   1.490       .  S
O139       Ni155   1.941       .  S
O139        C145   1.289       .  A
O140        C145   1.278       .  A
C141       C1649   1.488       .  S
O142        C144   1.272       .  A
O143       Ni154   1.904       .  S
C144        O150   1.277       .  A
C144       C1685   1.509       .  S
C145       C1733   1.477       .  S
H146        O147   0.966       .  S
O147       Ni155   1.939       .  S
O147       Ni149   1.904       .  S
O147       Ni154   1.906       .  S
O148       Ni149   1.929       .  S
Ni149       O153   1.918       .  S
Ni149       O151   1.938       .  S
O150       Ni155   1.941       .  S
C152        O153   1.269       .  A
C152       C1673   1.479       .  S
O157       Ni163   1.934       .  S
O157        C178   1.275       .  A
O158       Ni181   1.938       .  S
O158        C167   1.270       .  A
O159       Ni163   1.878       .  S
O159       Ni181   1.899       .  S
O159       Ni175   1.917       .  S
O159        H182   0.966       .  S
C160        O177   1.285       .  A
C160        O169   1.276       .  A
C160       C1625   1.491       .  S
O161       Ni180   1.887       .  S
O161        C167   1.259       .  A
O162       Ni180   1.900       .  S
O162        C164   1.265       .  A
Ni163       O166   1.921       .  S
Ni163       O168   1.906       .  S
C164        O174   1.272       .  A
C164       C1940   1.493       .  S
O165       Ni181   1.929       .  S
O165        C171   1.284       .  A
O166        C171   1.281       .  A
C167       C1601   1.476       .  S
O168        C170   1.271       .  A
O169       Ni180   1.902       .  S
C170        O176   1.277       .  A
C170       C1760   1.509       .  S
C171       C1637   1.477       .  S
H172        O173   0.966       .  S
O173       Ni181   1.931       .  S
O173       Ni175   1.894       .  S
O173       Ni180   1.895       .  S
O174       Ni175   1.936       .  S
Ni175       O179   1.911       .  S
Ni175       O177   1.940       .  S
O176       Ni181   1.943       .  S
C178        O179   1.271       .  A
C178       C1613   1.475       .  S
O183       Ni189   1.926       .  S
O183        C204   1.273       .  A
O184       Ni207   1.939       .  S
O184        C193   1.273       .  A
O185       Ni189   1.878       .  S
O185       Ni207   1.898       .  S
O185       Ni201   1.912       .  S
O185        H208   0.966       .  S
C186        O203   1.281       .  A
C186        O195   1.277       .  A
C186       C1640   1.472   1_556  S
O187       Ni206   1.890       .  S
O187        C193   1.260       .  A
O188       Ni206   1.906       .  S
O188        C190   1.266       .  A
Ni189       O192   1.907       .  S
Ni189       O194   1.909       .  S
C190        O200   1.270       .  A
C190       C1892   1.488       .  S
O191       Ni207   1.941       .  S
O191        C197   1.288       .  A
O192        C197   1.279       .  A
C193       C1580   1.475       .  S
O194        C196   1.270       .  A
O195       Ni206   1.916       .  S
C196        O202   1.277       .  A
C196       C1688   1.492       .  S
C197       C1628   1.485       .  S
H198        O199   0.966       .  S
O199       Ni207   1.937       .  S
O199       Ni201   1.893       .  S
O199       Ni206   1.902       .  S
O200       Ni201   1.929       .  S
Ni201       O205   1.905       .  S
Ni201       O203   1.927       .  S
O202       Ni207   1.941       .  S
C204        O205   1.267       .  A
C204       C1589   1.471       .  S
O209       Ni215   1.886       .  S
O209        C230   1.258       .  A
O210       Ni233   1.915       .  S
O210        C219   1.269       .  A
O211       Ni215   1.898       .  S
O211       Ni233   1.894       .  S
O211       Ni227   1.935       .  S
O211        H234   0.966       .  S
C212        O229   1.285       .  A
C212        O221   1.279       .  A
C212       C1541   1.481       .  S
O213       Ni232   1.931       .  S
O213        C219   1.272       .  A
O214       Ni232   1.900       .  S
O214        C216   1.270       .  A
Ni215       O218   1.906       .  S
Ni215       O220   1.903       .  S
C216        O226   1.277       .  A
C216       C1565   1.504       .  S
O217       Ni233   1.944       .  S
O217        C223   1.285       .  A
O218        C223   1.276       .  A
C219       C1529   1.474       .  S
O220        C222   1.266       .  A
O221       Ni232   1.920       .  S
C222        O228   1.269       .  A
C222       C1616   1.488       .  S
C223       C1553   1.476       .  S
H224        O225   0.966       .  S
O225       Ni233   1.920       .  S
O225       Ni227   1.911       .  S
O225       Ni232   1.888       .  S
O226       Ni227   1.942       .  S
Ni227       O231   1.951       .  S
Ni227       O229   1.934       .  S
O228       Ni233   1.928       .  S
C230        O231   1.273       .  A
C230       C1520   1.487       .  S
O235       Ni241   1.885       .  S
O235        C256   1.258       .  A
O236       Ni259   1.920       .  S
O236        C245   1.272       .  A
O237       Ni241   1.899       .  S
O237       Ni259   1.893       .  S
O237       Ni253   1.942       .  S
O237        H260   0.966       .  S
C238        O255   1.289       .  A
C238        O247   1.280       .  A
C238       C1556   1.478       .  S
O239       Ni258   1.929   1_556  S
O239        C245   1.273       .  A
O240       Ni258   1.907       .  S
O240        C242   1.271       .  A
Ni241       O244   1.912       .  S
Ni241       O246   1.887       .  S
C242        O252   1.275   1_554  A
C242       C1508   1.504       .  S
O243       Ni259   1.934       .  S
O243        C249   1.285       .  A
O244        C249   1.277       .  A
C245       C1493   1.478       .  S
O246        C248   1.261       .  A
O247       Ni258   1.916       .  S
C248        O254   1.273       .  A
C248       C1592   1.489       .  S
C249       C1544   1.478       .  S
H250        O251   0.966       .  S
O251       Ni259   1.918       .  S
O251       Ni253   1.903       .  S
O251       Ni258   1.880   1_556  S
O252       Ni253   1.935       .  S
Ni253       O257   1.951       .  S
Ni253       O255   1.942   1_556  S
O254       Ni259   1.937       .  S
C256        O257   1.272       .  A
C256       C1481   1.485       .  S
O261       Ni267   1.880       .  S
O261        C282   1.258       .  A
O262       Ni285   1.907       .  S
O262        C271   1.267       .  A
O263       Ni267   1.899       .  S
O263       Ni285   1.890       .  S
O263       Ni279   1.941       .  S
O263        H286   0.966       .  S
C264        O281   1.287       .  A
C264        O273   1.279       .  A
C264       C1460   1.478   1_554  S
O265       Ni284   1.929       .  S
O265        C271   1.273       .  A
O266       Ni284   1.902       .  S
O266        C268   1.268       .  A
Ni267       O270   1.908       .  S
Ni267       O272   1.901       .  S
C268        O278   1.275       .  A
C268       C1505   1.489       .  S
O269       Ni285   1.938       .  S
O269        C275   1.284       .  A
O270        C275   1.277       .  A
C271       C1436   1.470       .  S
O272        C274   1.266       .  A
O273       Ni284   1.919       .  S
C274        O280   1.270       .  A
C274       C1445   1.502       .  S
C275       C1472   1.479       .  S
H276        O277   0.966       .  S
O277       Ni285   1.922       .  S
O277       Ni279   1.906       .  S
O277       Ni284   1.891       .  S
O278       Ni279   1.938       .  S
Ni279       O283   1.949       .  S
Ni279       O281   1.937       .  S
O280       Ni285   1.937       .  S
C282        O283   1.271       .  A
C282       C1424   1.489       .  S
O287       Ni293   1.893       .  S
O287        C308   1.262       .  A
O288       Ni311   1.906       .  S
O288        C297   1.266       .  A
O289       Ni293   1.903       .  S
O289       Ni311   1.895       .  S
O289       Ni305   1.930       .  S
O289        H312   0.966       .  S
C290        O307   1.283       .  A
C290        O299   1.280       .  A
C290       C1469   1.488       .  S
O291       Ni310   1.937       .  S
O291        C297   1.275       .  A
O292       Ni310   1.908       .  S
O292        C294   1.270       .  A
Ni293       O296   1.910       .  S
Ni293       O298   1.907       .  S
C294        O304   1.276       .  A
C294       C1568   1.489       .  S
O295       Ni311   1.933       .  S
O295        C301   1.282       .  A
O296        C301   1.275       .  A
C297       C1397   1.475       .  S
O298        C300   1.268       .  A
O299       Ni310   1.918       .  S
C300        O306   1.269       .  A
C300       C1409   1.501       .  S
C301       C1457   1.478       .  S
H302        O303   0.966       .  S
O303       Ni311   1.918       .  S
O303       Ni305   1.906       .  S
O303       Ni310   1.891       .  S
O304       Ni305   1.934       .  S
Ni305       O309   1.939       .  S
Ni305       O307   1.934       .  S
O306       Ni311   1.932       .  S
C308        O309   1.271       .  A
C308       C1385   1.478       .  S
O313       Ni319   1.937       .  S
O313        C334   1.274       .  A
O314       Ni337   1.946       .  S
O314        C323   1.271       .  A
O315       Ni319   1.888       .  S
O315       Ni337   1.906       .  S
O315       Ni331   1.912       .  S
O315        H338   0.966       .  S
C316        O333   1.279       .  A
C316        O325   1.279       .  A
C316       C1349   1.492       .  S
O317       Ni336   1.890       .  S
O317        C323   1.258       .  A
O318       Ni336   1.894       .  S
O318        C320   1.265       .  A
Ni319       O322   1.914       .  S
Ni319       O324   1.907       .  S
C320        O330   1.269       .  A
C320       C1340   1.495       .  S
O321       Ni337   1.938       .  S
O321        C327   1.288       .  A
O322        C327   1.279       .  A
C323       C1313   1.479       .  S
O324        C326   1.271       .  A
O325       Ni336   1.923   1_556  S
C326        O332   1.275       .  A
C326       C1373   1.503       .  S
C327       C1361   1.481       .  S
H328        O329   0.967       .  S
O329       Ni337   1.939       .  S
O329       Ni331   1.898       .  S
O329       Ni336   1.908       .  S
O330       Ni331   1.931       .  S
Ni331       O335   1.909       .  S
Ni331       O333   1.922   1_554  S
O332       Ni337   1.936       .  S
C334        O335   1.267       .  A
C334       C1328   1.475       .  S
O339       Ni345   1.935       .  S
O339        C360   1.275       .  A
O340       Ni363   1.948       .  S
O340        C349   1.274       .  A
O341       Ni345   1.883       .  S
O341       Ni363   1.906       .  S
O341       Ni357   1.916       .  S
O341        H364   0.966       .  S
C342        O359   1.283       .  A
C342        O351   1.276       .  A
C342       C1364   1.476       .  S
O343       Ni362   1.888       .  S
O343        C349   1.259       .  A
O344       Ni362   1.899       .  S
O344        C346   1.266       .  A
Ni345       O348   1.914       .  S
Ni345       O350   1.908       .  S
C346        O356   1.274       .  A
C346       C1289   1.496       .  S
O347       Ni363   1.942       .  S
O347        C353   1.288       .  A
O348        C353   1.280       .  A
C349       C1265   1.482       .  S
O350        C352   1.269       .  A
O351       Ni362   1.909       .  S
C352        O358   1.278       .  A
C352       C1301   1.500       .  S
C353       C1352   1.484       .  S
H354        O355   0.966       .  S
O355       Ni363   1.934       .  S
O355       Ni357   1.896       .  S
O355       Ni362   1.899       .  S
O356       Ni357   1.944       .  S
Ni357       O361   1.917       .  S
Ni357       O359   1.932       .  S
O358       Ni363   1.943       .  S
C360        O361   1.272       .  A
C360       C1277   1.490       .  S
O365       Ni371   1.916       .  S
O365        C386   1.269       .  A
O366       Ni389   1.943       .  S
O366        C375   1.272       .  A
O367       Ni371   1.883       .  S
O367       Ni389   1.904       .  S
O367       Ni383   1.927       .  S
O367        H390   0.959       .  S
C368        O385   1.286       .  A
C368        O377   1.276       .  A
C368       C1244   1.477       .  S
O369       Ni388   1.886       .  S
O369        C375   1.258       .  A
O370       Ni388   1.904       .  S
O370        C372   1.266       .  A
Ni371       O374   1.915       .  S
Ni371       O376   1.901       .  S
C372        O382   1.270       .  A
C372       C1532   1.486       .  S
O373       Ni389   1.935       .  S
O373        C379   1.286       .  A
O374        C379   1.279       .  A
C375       C1229   1.476       .  S
O376        C378   1.268       .  A
O377       Ni388   1.906       .  S
C378        O384   1.276       .  A
C378       C1376   1.488       .  S
C379       C1256   1.479       .  S
H380        O381   0.967       .  S
O381       Ni389   1.939       .  S
O381       Ni383   1.899       .  S
O381       Ni388   1.898       .  S
O382       Ni383   1.933       .  S
Ni383       O387   1.925       .  S
Ni383       O385   1.944       .  S
O384       Ni389   1.940       .  S
C386        O387   1.271       .  A
C386       C1928   1.488       .  S
O391       Ni397   1.923       .  S
O391        C412   1.272       .  A
O392       Ni415   1.939       .  S
O392        C401   1.272       .  A
O393       Ni397   1.879       .  S
O393       Ni415   1.904       .  S
O393       Ni409   1.919       .  S
O393        H416   0.966       .  S
C394        O411   1.284       .  A
C394        O403   1.274       .  A
C394       C1253   1.481   1_556  S
O395       Ni414   1.892       .  S
O395        C401   1.263       .  A
O396       Ni414   1.905       .  S
O396        C398   1.267       .  A
Ni397       O400   1.910       .  S
Ni397       O402   1.901       .  S
C398        O408   1.273       .  A
C398       C1496   1.496       .  S
O399       Ni415   1.945       .  S
O399        C405   1.287       .  A
O400        C405   1.278       .  A
C401       C1217   1.478       .  S
O402        C404   1.269       .  A
O403       Ni414   1.909       .  S
C404        O410   1.277       .  A
C404       C1304   1.508       .  S
C405       C1241   1.481       .  S
H406        O407   0.967       .  S
O407       Ni415   1.934       .  S
O407       Ni409   1.900       .  S
O407       Ni414   1.902       .  S
O408       Ni409   1.938       .  S
Ni409       O413   1.921       .  S
Ni409       O411   1.933       .  S
O410       Ni415   1.946       .  S
C412        O413   1.272       .  A
C412       C1880   1.484       .  S
O417       Ni423   1.933   1_554  S
O417        C438   1.273       .  A
O418       Ni441   1.947       .  S
O418        C427   1.272       .  A
O419       Ni423   1.881   1_554  S
O419       Ni441   1.907       .  S
O419       Ni435   1.919       .  S
O419        H442   0.966       .  S
C420        O437   1.284       .  A
C420        O429   1.280       .  A
C420       C1196   1.484       .  S
O421       Ni440   1.890       .  S
O421        C427   1.258       .  A
O422       Ni440   1.892       .  S
O422        C424   1.262       .  A
Ni423       O426   1.914       .  S
Ni423       O428   1.894       .  S
C424        O434   1.269       .  A
C424       C1169   1.481       .  S
O425       Ni441   1.933   1_556  S
O425        C431   1.284       .  A
O426        C431   1.280       .  A
C427       C1316   1.482       .  S
O428        C430   1.267       .  A
O429       Ni440   1.918       .  S
C430        O436   1.279   1_556  A
C430       C1208   1.494       .  S
C431       C1184   1.485       .  S
H432        O433   0.966       .  S
O433       Ni441   1.931       .  S
O433       Ni435   1.891       .  S
O433       Ni440   1.899       .  S
O434       Ni435   1.930       .  S
Ni435       O439   1.915       .  S
Ni435       O437   1.929       .  S
O436       Ni441   1.946       .  S
C438        O439   1.269       .  A
C438       C1157   1.480       .  S
O443       Ni449   1.946       .  S
O443        C464   1.278       .  A
O444       Ni467   1.959       .  S
O444        C453   1.273       .  A
O445       Ni449   1.890       .  S
O445       Ni467   1.918       .  S
O445       Ni461   1.919       .  S
O445        H468   0.966       .  S
C446        O463   1.282       .  A
C446        O455   1.276       .  A
C446       C1181   1.472       .  S
O447       Ni466   1.882       .  S
O447        C453   1.256       .  A
O448       Ni466   1.895       .  S
O448        C450   1.263       .  A
Ni449       O452   1.923       .  S
Ni449       O454   1.905       .  S
C450        O460   1.270       .  A
C450       C1133   1.485       .  S
O451       Ni467   1.929       .  S
O451        C457   1.283       .  A
O452        C457   1.281       .  A
C453       C1268   1.492       .  S
O454        C456   1.270       .  A
O455       Ni466   1.904       .  S
C456        O462   1.278       .  A
C456       C1145   1.491       .  S
C457       C1193   1.493       .  S
H458        O459   0.966       .  S
O459       Ni467   1.930       .  S
O459       Ni461   1.897       .  S
O459       Ni466   1.904       .  S
O460       Ni461   1.934       .  S
Ni461       O465   1.917       .  S
Ni461       O463   1.928       .  S
O462       Ni467   1.943       .  S
C464        O465   1.269       .  A
C464       C1121   1.497       .  S
O469       Ni475   1.929       .  S
O469        C490   1.273       .  A
O470       Ni493   1.942       .  S
O470        C479   1.271       .  A
O471       Ni475   1.884       .  S
O471       Ni493   1.900       .  S
O471       Ni487   1.914       .  S
O471        H494   0.966       .  S
C472        O489   1.284       .  A
C472        O481   1.275       .  A
C472       C1112   1.481       .  S
O473       Ni492   1.885       .  S
O473        C479   1.258       .  A
O474       Ni492   1.898       .  S
O474        C476   1.265       .  A
Ni475       O478   1.914       .  S
Ni475       O480   1.906       .  S
C476        O486   1.269       .  A
C476       C1433   1.483       .  S
O477       Ni493   1.932       .  S
O477        C483   1.286       .  A
O478        C483   1.279       .  A
C479       C1232   1.478       .  S
O480        C482   1.271       .  A
O481       Ni492   1.906       .  S
C482        O488   1.276       .  A
C482       C1148   1.504       .  S
C483       C1097   1.475       .  S
H484        O485   0.966       .  S
O485       Ni493   1.939       .  S
O485       Ni487   1.895       .  S
O485       Ni492   1.902       .  S
O486       Ni487   1.929       .  S
Ni487       O491   1.909       .  S
Ni487       O489   1.939       .  S
O488       Ni493   1.939       .  S
C490        O491   1.268       .  A
C490       C1817   1.471       .  S
O495       Ni501   1.925       .  S
O495        C516   1.271       .  A
O496       Ni519   1.941       .  S
O496        C505   1.271       .  A
O497       Ni501   1.883       .  S
O497       Ni519   1.900       .  S
O497       Ni513   1.916       .  S
O497        H520   0.966       .  S
C498        O515   1.283       .  A
C498        O507   1.274       .  A
C498       C1100   1.477       .  S
O499       Ni518   1.888       .  S
O499        C505   1.260       .  A
O500       Ni518   1.891       .  S
O500        C502   1.266       .  A
Ni501       O504   1.911       .  S
Ni501       O506   1.903       .  S
C502        O512   1.274       .  A
C502       C1400   1.496       .  S
O503       Ni519   1.941       .  S
O503        C509   1.288       .  A
O504        C509   1.279       .  A
C505       C1220   1.477       .  S
O506        C508   1.269       .  A
O507       Ni518   1.904       .  S
C508        O514   1.273       .  A
C508       C1205   1.500       .  S
C509       C1109   1.483   1_556  S
H510        O511   0.966       .  S
O511       Ni519   1.935       .  S
O511       Ni513   1.902       .  S
O511       Ni518   1.898       .  S
O512       Ni513   1.942       .  S
Ni513       O517   1.923       .  S
Ni513       O515   1.934       .  S
O514       Ni519   1.934       .  S
C516        O517   1.273       .  A
C516       C1781   1.476   1_565  S
O521       Ni527   1.887       .  S
O521        C542   1.259       .  A
O522       Ni545   1.911       .  S
O522        C531   1.269       .  A
O523       Ni527   1.894       .  S
O523       Ni545   1.890       .  S
O523       Ni539   1.937       .  S
O523        H546   0.966       .  S
C524        O541   1.288       .  A
C524        O533   1.278       .  A
C524       C1073   1.481       .  S
O525       Ni544   1.929       .  S
O525        C531   1.274       .  A
O526       Ni544   1.913       .  S
O526        C528   1.272       .  A
Ni527       O530   1.911       .  S
Ni527       O532   1.897       .  S
C528        O538   1.276       .  A
C528       C1085   1.510       .  S
O529       Ni545   1.942       .  S
O529        C535   1.285       .  A
O530        C535   1.278       .  A
C531       C1049   1.478       .  S
O532        C534   1.263       .  A
O533       Ni544   1.913       .  S
C534        O540   1.274       .  A
C534       C1160   1.496       .  S
C535       C1061   1.482       .  S
H536        O537   0.966       .  S
O537       Ni545   1.921       .  S
O537       Ni539   1.906       .  S
O537       Ni544   1.886       .  S
O538       Ni539   1.938       .  S
Ni539       O543   1.952       .  S
Ni539       O541   1.942       .  S
O540       Ni545   1.944       .  S
C542        O543   1.274       .  A
C542       C1808   1.488       .  S
O547       Ni553   1.884       .  S
O547        C568   1.258       .  A
O548       Ni571   1.921       .  S
O548        C557   1.273       .  A
O549       Ni553   1.893       .  S
O549       Ni571   1.895       .  S
O549       Ni565   1.934       .  S
O549        H572   0.966       .  S
C550        O567   1.285       .  A
C550        O559   1.281       .  A
C550       C1064   1.486       .  S
O551       Ni570   1.940       .  S
O551        C557   1.277       .  A
O552       Ni570   1.912       .  S
O552        C554   1.270       .  A
Ni553       O556   1.900       .  S
Ni553       O558   1.897       .  S
C554        O564   1.273       .  A
C554       C1037   1.496       .  S
O555       Ni571   1.944       .  S
O555        C561   1.286       .  A
O556        C561   1.275       .  A
C557       C1025   1.484       .  S
O558        C560   1.263       .  A
O559       Ni570   1.930       .  S
C560        O566   1.281       .  A
C560       C1124   1.510       .  S
C561       C1076   1.477       .  S
H562        O563   0.966       .  S
O563       Ni571   1.923       .  S
O563       Ni565   1.910       .  S
O563       Ni570   1.899       .  S
O564       Ni565   1.932       .  S
Ni565       O569   1.942       .  S
Ni565       O567   1.930       .  S
O566       Ni571   1.961       .  S
C568        O569   1.270       .  A
C568       C1772   1.480       .  S
O573       Ni579   1.886       .  S
O573        C594   1.258       .  A
O574       Ni597   1.927       .  S
O574        C583   1.273       .  A
O575       Ni579   1.894       .  S
O575       Ni597   1.903       .  S
O575       Ni591   1.930       .  S
O575        H598   0.966       .  S
C576        O593   1.285       .  A
C576        O585   1.280       .  A
C576       C1013   1.483       .  S
O577       Ni596   1.930       .  S
O577        C583   1.273       .  A
O578       Ni596   1.910       .  S
O578        C580   1.270       .  A
Ni579       O582   1.902       .  S
Ni579       O584   1.896       .  S
C580        O590   1.276       .  A
C580       C1088   1.495       .  S
O581       Ni597   1.937       .  S
O581        C587   1.284       .  A
O582        C587   1.276       .  A
C583       C1664   1.481       .  S
O584        C586   1.266       .  A
O585       Ni596   1.916       .  S
C586        O592   1.274       .  A
C586       C1280   1.505       .  S
C587       C1001   1.490       .  S
H588        O589   0.966       .  S
O589       Ni597   1.919       .  S
O589       Ni591   1.911       .  S
O589       Ni596   1.890       .  S
O590       Ni591   1.940       .  S
Ni591       O595   1.956       .  S
Ni591       O593   1.934       .  S
O592       Ni597   1.945       .  S
C594        O595   1.273       .  A
C594       C1916   1.490       .  S
O599       Ni605   1.890       .  S
O599        C620   1.261       .  A
O600       Ni623   1.921       .  S
O600        C609   1.273       .  A
O601       Ni605   1.899       .  S
O601       Ni623   1.897       .  S
O601       Ni617   1.938       .  S
O601        H624   0.966       .  S
C602        O619   1.289       .  A
C602        O611   1.281       .  A
C602       C1004   1.480       .  S
O603       Ni622   1.922       .  S
O603        C609   1.271       .  A
O604       Ni622   1.903       .  S
O604        C606   1.269       .  A
Ni605       O608   1.915   1_556  S
Ni605       O610   1.900       .  S
C606        O616   1.279       .  A
C606       C1040   1.509       .  S
O607       Ni623   1.931   1_554  S
O607        C613   1.284       .  A
O608        C613   1.278       .  A
C609       C1712   1.477       .  S
O610        C612   1.265       .  A
O611       Ni622   1.910       .  S
C612        O618   1.273       .  A
C612       C1325   1.490       .  S
C613       C1016   1.475       .  S
H614        O615   0.966       .  S
O615       Ni623   1.917       .  S
O615       Ni617   1.898       .  S
O615       Ni622   1.876       .  S
O616       Ni617   1.946       .  S
Ni617       O621   1.950       .  S
Ni617       O619   1.941       .  S
O618       Ni623   1.939       .  S
C620        O621   1.273       .  A
C620       C1868   1.491       .  S
O625       Ni631   1.887       .  S
O625        C646   1.258       .  A
O626       Ni649   1.912       .  S
O626        C635   1.270       .  A
O627       Ni631   1.901       .  S
O627       Ni649   1.898       .  S
O627       Ni643   1.932       .  S
O627        H650   0.966       .  S
C628        O645   1.284       .  A
C628        O637   1.281       .  A
C628        C977   1.480       .  S
O629       Ni648   1.944       .  S
O629        C635   1.277       .  A
O630       Ni648   1.907       .  S
O630        C632   1.271       .  A
Ni631       O634   1.901       .  S
Ni631       O636   1.902       .  S
C632        O642   1.276       .  A
C632        C989   1.488       .  S
O633       Ni649   1.942       .  S
O633        C639   1.285       .  A
O634        C639   1.274       .  A
C635       C1292   1.481       .  S
O636        C638   1.265       .  A
O637       Ni648   1.926       .  S
C638        O644   1.271       .  A
C638       C1676   1.492       .  S
C639        C965   1.476       .  S
H640        O641   0.966       .  S
O641       Ni649   1.918       .  S
O641       Ni643   1.909       .  S
O641       Ni648   1.889       .  S
O642       Ni643   1.936       .  S
Ni643       O647   1.944       .  S
Ni643       O645   1.930       .  S
O644       Ni649   1.937       .  S
C646        O647   1.272       .  A
C646       C1517   1.480       .  S
O651       Ni657   1.888   1_556  S
O651        C672   1.259       .  A
O652       Ni675   1.903       .  S
O652        C661   1.267       .  A
O653       Ni657   1.901   1_556  S
O653       Ni675   1.890       .  S
O653       Ni669   1.937       .  S
O653        H676   0.966       .  S
C654        O671   1.286       .  A
C654        O663   1.280       .  A
C654        C968   1.478       .  S
O655       Ni674   1.934       .  S
O655        C661   1.276       .  A
O656       Ni674   1.908       .  S
O656        C658   1.270       .  A
Ni657       O660   1.912       .  S
Ni657       O662   1.900       .  S
C658        O668   1.278       .  A
C658        C953   1.490       .  S
O659       Ni675   1.938   1_554  S
O659        C665   1.284       .  A
O660        C665   1.277       .  A
C661       C1337   1.474       .  S
O662        C664   1.263   1_554  A
O663       Ni674   1.918       .  S
C664        O670   1.269       .  A
C664       C1724   1.490       .  S
C665        C980   1.482       .  S
H666        O667   0.966       .  S
O667       Ni675   1.917       .  S
O667       Ni669   1.900       .  S
O667       Ni674   1.883       .  S
O668       Ni669   1.939       .  S
Ni669       O673   1.942       .  S
Ni669       O671   1.931       .  S
O670       Ni675   1.926       .  S
C672        O673   1.272       .  A
C672       C1484   1.476       .  S
O677       Ni683   1.892       .  S
O677        C698   1.261       .  A
O678       Ni701   1.906       .  S
O678        C687   1.266       .  A
O679       Ni683   1.904       .  S
O679       Ni701   1.897       .  S
O679       Ni695   1.936       .  S
O679        H702   0.966       .  S
C680        O697   1.288       .  A
C680        O689   1.278       .  A
C680        C941   1.480       .  S
O681       Ni700   1.926       .  S
O681        C687   1.271       .  A
O682       Ni700   1.903       .  S
O682        C684   1.270       .  A
Ni683       O686   1.913       .  S
Ni683       O688   1.907       .  S
C684        O694   1.276       .  A
C684        C992   1.503       .  S
O685       Ni701   1.933       .  S
O685        C691   1.283       .  A
O686        C691   1.276       .  A
C687       C1172   1.466       .  S
O688        C690   1.267       .  A
O689       Ni700   1.913       .  S
C690        O696   1.268       .  A
C690        C917   1.482       .  S
C691        C932   1.478   1_554  S
H692        O693   0.966       .  S
O693       Ni701   1.917       .  S
O693       Ni695   1.903       .  S
O693       Ni700   1.885       .  S
O694       Ni695   1.939       .  S
Ni695       O699   1.940       .  S
Ni695       O697   1.937       .  S
O696       Ni701   1.929       .  S
C698        O699   1.272       .  A
C698       C1421   1.477       .  S
O703       Ni709   1.884       .  S
O703        C724   1.260       .  A
O704       Ni727   1.913       .  S
O704        C713   1.268       .  A
O705       Ni709   1.901       .  S
O705       Ni727   1.898       .  S
O705       Ni721   1.935       .  S
O705        H728   0.966       .  S
C706        O723   1.287       .  A
C706        O715   1.279       .  A
C706        C929   1.484       .  S
O707       Ni726   1.930       .  S
O707        C713   1.272       .  A
O708       Ni726   1.906       .  S
O708        C710   1.270       .  A
Ni709       O712   1.902       .  S
Ni709       O714   1.903       .  S
C710        O720   1.276       .  A
C710        C956   1.505       .  S
O711       Ni727   1.940       .  S
O711        C717   1.284       .  A
O712        C717   1.273       .  A
C713       C1136   1.472       .  S
O714        C716   1.266       .  A
O715       Ni726   1.915       .  S
C716        O722   1.270       .  A
C716        C905   1.479       .  S
C717        C944   1.478       .  S
H718        O719   0.966       .  S
O719       Ni727   1.919       .  S
O719       Ni721   1.907       .  S
O719       Ni726   1.886       .  S
O720       Ni721   1.939       .  S
Ni721       O725   1.946       .  S
Ni721       O723   1.940       .  S
O722       Ni727   1.933       .  S
C724        O725   1.273       .  A
C724       C1388   1.479       .  S
O729       Ni735   1.911       .  S
O729        C750   1.269       .  A
O730       Ni753   1.950       .  S
O730        C739   1.274       .  A
O731       Ni735   1.880       .  S
O731       Ni753   1.902       .  S
O731       Ni747   1.922       .  S
O731        H754   0.966       .  S
C732        O749   1.282       .  A
C732        O741   1.275       .  A
C732        C881   1.487       .  S
O733       Ni752   1.885       .  S
O733        C739   1.258       .  A
O734       Ni752   1.895       .  S
O734        C736   1.265       .  A
Ni735       O738   1.902   1_554  S
Ni735       O740   1.902   1_554  S
C736        O746   1.270       .  A
C736       C1052   1.498       .  S
O737       Ni753   1.946   1_556  S
O737        C743   1.290       .  A
O738        C743   1.278       .  A
C739       C1700   1.483       .  S
O740        C742   1.267       .  A
O741       Ni752   1.910       .  S
C742        O748   1.277   1_556  A
C742        C893   1.492       .  S
C743        C872   1.469       .  S
H744        O745   0.966       .  S
O745       Ni753   1.940       .  S
O745       Ni747   1.905       .  S
O745       Ni752   1.902       .  S
O746       Ni747   1.935       .  S
Ni747       O751   1.927       .  S
Ni747       O749   1.929       .  S
O748       Ni753   1.944       .  S
C750        O751   1.270       .  A
C750        C920   1.495       .  S
O755       Ni761   1.917       .  S
O755        C776   1.270       .  A
O756       Ni779   1.950       .  S
O756        C765   1.275       .  A
O757       Ni761   1.878       .  S
O757       Ni779   1.903       .  S
O757       Ni773   1.920       .  S
O757        H780   0.966       .  S
C758        O775   1.283       .  A
C758        O767   1.275       .  A
C758        C869   1.477       .  S
O759       Ni778   1.892       .  S
O759        C765   1.261       .  A
O760       Ni778   1.904       .  S
O760        C762   1.268       .  A
Ni761       O764   1.909       .  S
Ni761       O766   1.900       .  S
C762        O772   1.273       .  A
C762       C1028   1.499       .  S
O763       Ni779   1.942       .  S
O763        C769   1.288       .  A
O764        C769   1.280       .  A
C765       C1652   1.487       .  S
O766        C768   1.268       .  A
O767       Ni778   1.906       .  S
C768        O774   1.279       .  A
C768        C857   1.508       .  S
C769        C884   1.477       .  S
H770        O771   0.967       .  S
O771       Ni779   1.934       .  S
O771       Ni773   1.904       .  S
O771       Ni778   1.902       .  S
O772       Ni773   1.943       .  S
Ni773       O777   1.927       .  S
Ni773       O775   1.931       .  S
O774       Ni779   1.948       .  S
C776        O777   1.272       .  A
C776        C908   1.491       .  S
O781       Ni787   1.938       .  S
O781        C802   1.275       .  A
O782       Ni805   1.939       .  S
O782        C791   1.270       .  A
O783       Ni787   1.889       .  S
O783       Ni805   1.910       .  S
O783       Ni799   1.914       .  S
O783        H806   0.966       .  S
C784        O801   1.280       .  A
C784        O793   1.276       .  A
C784        C845   1.488       .  S
O785       Ni804   1.887       .  S
O785        C791   1.259       .  A
O786       Ni804   1.903       .  S
O786        C788   1.266       .  A
Ni787       O790   1.917       .  S
Ni787       O792   1.905       .  S
C788        O798   1.271       .  A
C788       C1832   1.495       .  S
O789       Ni805   1.924       .  S
O789        C795   1.282       .  A
O790        C795   1.280       .  A
C791       C1604   1.479       .  S
O792        C794   1.269       .  A
O793       Ni804   1.903       .  S
C794        O800   1.276       .  A
C794        C860   1.489       .  S
C795        C836   1.475       .  S
H796        O797   0.967       .  S
O797       Ni805   1.929       .  S
O797       Ni799   1.896       .  S
O797       Ni804   1.902       .  S
O798       Ni799   1.936       .  S
Ni799       O803   1.911       .  S
Ni799       O801   1.930       .  S
O800       Ni805   1.940       .  S
C802        O803   1.268       .  A
C802       C1448   1.482       .  S
O807       Ni813   1.931       .  S
O807        C828   1.274       .  A
O808       Ni831   1.949       .  S
O808        C817   1.270       .  A
O809       Ni813   1.882       .  S
O809       Ni831   1.905       .  S
O809       Ni825   1.919       .  S
O809        H832   0.966       .  S
C810        O827   1.286       .  A
C810        O819   1.277       .  A
C810        C833   1.477       .  S
O811       Ni830   1.884       .  S
O811        C817   1.257       .  A
O812       Ni830   1.893       .  S
O812        C814   1.264       .  A
Ni813       O816   1.921       .  S
Ni813       O818   1.903       .  S
C814        O824   1.273       .  A
C814       C1796   1.504       .  S
O815       Ni831   1.920       .  S
O815        C821   1.281       .  A
O816        C821   1.282       .  A
C817       C1577   1.485       .  S
O818        C820   1.270       .  A
O819       Ni830   1.905       .  S
C820        O826   1.278       .  A
C820        C896   1.510       .  S
C821        C848   1.490   1_556  S
H822        O823   0.967       .  S
O823       Ni831   1.929       .  S
O823       Ni825   1.895       .  S
O823       Ni830   1.896       .  S
O824       Ni825   1.948       .  S
Ni825       O829   1.923       .  S
Ni825       O827   1.936       .  S
O826       Ni831   1.946       .  S
C828        O829   1.273       .  A
C828       C1412   1.484       .  S
C833        C834   1.410       .  A
C833        C838   1.409       .  A
C834        C835   1.403       .  A
C834        H843   1.083       .  S
C835        C836   1.409       .  A
C835        S839   1.808       .  S
C836        C837   1.407       .  A
C837        C838   1.395       .  A
C837        H844   1.084       .  S
C838        S840   1.803       .  S
S839        H842   1.407       .  S
S840        H841   1.407       .  S
C845        C846   1.407       .  A
C845        C850   1.414       .  A
C846        C847   1.398       .  A
C846        H855   1.082       .  S
C847        C848   1.418       .  A
C847        S851   1.812       .  S
C848        C849   1.410       .  A
C849        C850   1.399       .  A
C849        H856   1.083       .  S
C850        S852   1.802       .  S
S851        H854   1.406       .  S
S852        H853   1.408       .  S
C857        C858   1.416       .  A
C857        C862   1.418       .  A
C858        C859   1.404       .  A
C858        H867   1.082       .  S
C859        C860   1.407       .  A
C859        S863   1.808       .  S
C860        C861   1.409       .  A
C861        C862   1.410       .  A
C861        H868   1.084       .  S
C862        S864   1.800       .  S
S863        H866   1.407       .  S
S864        H865   1.408       .  S
C869        C870   1.411       .  A
C869        C874   1.410       .  A
C870        C871   1.397       .  A
C870        H879   1.084       .  S
C871        C872   1.405       .  A
C871        S875   1.803       .  S
C872        C873   1.407       .  A
C873        C874   1.398       .  A
C873        H880   1.085       .  S
C874        S876   1.802       .  S
S875        H878   1.407       .  S
S876        H877   1.407       .  S
C881        C882   1.413       .  A
C881        C886   1.413       .  A
C882        C883   1.399       .  A
C882        H891   1.083       .  S
C883        C884   1.408       .  A
C883        S887   1.803       .  S
C884        C885   1.408       .  A
C885        C886   1.397       .  A
C885        H892   1.084       .  S
C886        S888   1.803       .  S
S887        H890   1.407       .  S
S888        H889   1.408       .  S
C893        C894   1.409       .  A
C893        C898   1.412       .  A
C894        C895   1.413       .  A
C894        H903   1.084       .  S
C895        C896   1.421       .  A
C895        S899   1.800       .  S
C896        C897   1.414       .  A
C897        C898   1.399       .  A
C897        H904   1.083       .  S
C898        S900   1.806   1_556  S
S899        H902   1.408       .  S
S900        H901   1.407       .  S
C905        C906   1.405       .  A
C905        C910   1.411       .  A
C906        C907   1.408   1_565  A
C906        H915   1.084       .  S
C907        C908   1.418       .  A
C907        S911   1.801       .  S
C908        C909   1.407   1_545  A
C909        C910   1.394       .  A
C909        H916   1.084   1_565  S
C910        S912   1.805       .  S
S911        H914   1.407       .  S
S912        H913   1.404       .  S
C917        C918   1.407       .  A
C917        C922   1.409       .  A
C918        C919   1.414   1_565  A
C918        H927   1.083       .  S
C919        C920   1.420       .  A
C919        S923   1.807       .  S
C920        C921   1.407   1_545  A
C921        C922   1.391       .  A
C921        H928   1.083   1_565  S
C922        S924   1.805       .  S
S923        H926   1.407       .  S
S924        H925   1.406       .  S
C929        C930   1.404       .  A
C929        C934   1.417       .  A
C930        C931   1.401       .  A
C930        H939   1.084       .  S
C931        C932   1.415       .  A
C931        S935   1.804       .  S
C932        C933   1.401       .  A
C933        C934   1.403       .  A
C933        H940   1.083       .  S
C934        S936   1.809       .  S
S935        H938   1.407   1_556  S
S936        H937   1.407       .  S
C941        C942   1.402       .  A
C941        C946   1.417       .  A
C942        C943   1.400       .  A
C942        H951   1.083       .  S
C943        C944   1.414       .  A
C943        S947   1.809       .  S
C944        C945   1.402       .  A
C945        C946   1.404       .  A
C945        H952   1.083       .  S
C946        S948   1.808       .  S
S947        H950   1.407       .  S
S948        H949   1.407       .  S
C953        C954   1.408       .  A
C953        C958   1.411       .  A
C954        C955   1.409       .  A
C954        H963   1.084       .  S
C955        C956   1.420       .  A
C955        S959   1.802       .  S
C956        C957   1.413       .  A
C957        C958   1.401       .  A
C957        H964   1.083       .  S
C958        S960   1.804       .  S
S959        H962   1.408       .  S
S960        H961   1.407       .  S
C965        C966   1.402       .  A
C965        C970   1.416       .  A
C966        C967   1.400       .  A
C966        H975   1.084       .  S
C967        C968   1.416       .  A
C967        S971   1.803       .  S
C968        C969   1.403       .  A
C969        C970   1.397       .  A
C969        H976   1.084       .  S
C970        S972   1.805       .  S
S971        H974   1.407       .  S
S972        H973   1.407       .  S
C977        C978   1.403       .  A
C977        C982   1.415       .  A
C978        C979   1.401       .  A
C978        H987   1.084       .  S
C979        C980   1.416       .  A
C979        S983   1.804       .  S
C980        C981   1.404       .  A
C981        C982   1.401       .  A
C981        H988   1.084       .  S
C982        S984   1.804       .  S
S983        H986   1.407       .  S
S984        H985   1.407       .  S
C989        C990   1.410       .  A
C989        C994   1.409       .  A
C990        C991   1.410       .  A
C990        H999   1.084       .  S
C991        C992   1.419       .  A
C991        S995   1.802       .  S
C992        C993   1.414       .  A
C993        C994   1.398       .  A
C993       H1000   1.083       .  S
C994        S996   1.805       .  S
S995        H998   1.407       .  S
S996        H997   1.407       .  S
C1001      C1002   1.413       .  A
C1001      C1006   1.413       .  A
C1002      C1003   1.395       .  A
C1002      H1011   1.083       .  S
C1003      C1004   1.407       .  A
C1003      S1007   1.804       .  S
C1004      C1005   1.411       .  A
C1005      C1006   1.404       .  A
C1005      H1012   1.083       .  S
C1006      S1008   1.809       .  S
S1007      H1010   1.407       .  S
S1008      H1009   1.407       .  S
C1013      C1014   1.409       .  A
C1013      C1018   1.414       .  A
C1014      C1015   1.400       .  A
C1014      H1023   1.084       .  S
C1015      C1016   1.411       .  A
C1015      S1019   1.804       .  S
C1016      C1017   1.403       .  A
C1017      C1018   1.397       .  A
C1017      H1024   1.084       .  S
C1018      S1020   1.800       .  S
S1019      H1022   1.405       .  S
S1020      H1021   1.404       .  S
C1025      C1026   1.404       .  A
C1025      C1030   1.411       .  A
C1026      C1027   1.409       .  A
C1026      H1035   1.084       .  S
C1027      C1028   1.421       .  A
C1027      S1031   1.802       .  S
C1028      C1029   1.409       .  A
C1029      C1030   1.400       .  A
C1029      H1036   1.084       .  S
C1030      S1032   1.804       .  S
S1031      H1034   1.408       .  S
S1032      H1033   1.407       .  S
C1037      C1038   1.411       .  A
C1037      C1042   1.410       .  A
C1038      C1039   1.413       .  A
C1038      H1047   1.082       .  S
C1039      C1040   1.420       .  A
C1039      S1043   1.807       .  S
C1040      C1041   1.416       .  A
C1041      C1042   1.400       .  A
C1041      H1048   1.083       .  S
C1042      S1044   1.804       .  S
S1043      H1046   1.407       .  S
S1044      H1045   1.408       .  S
C1049      C1050   1.404       .  A
C1049      C1054   1.409       .  A
C1050      C1051   1.406       .  A
C1050      H1059   1.084       .  S
C1051      C1052   1.422       .  A
C1051      S1055   1.801       .  S
C1052      C1053   1.410       .  A
C1053      C1054   1.393       .  A
C1053      H1060   1.083       .  S
C1054      S1056   1.805       .  S
S1055      H1058   1.408       .  S
S1056      H1057   1.407       .  S
C1061      C1062   1.403   1_554  A
C1061      C1066   1.416   1_554  A
C1062      C1063   1.405       .  A
C1062      H1071   1.084   1_556  S
C1063      C1064   1.421       .  A
C1063      S1067   1.804       .  S
C1064      C1065   1.400       .  A
C1065      C1066   1.398       .  A
C1065      H1072   1.084       .  S
C1066      S1068   1.804       .  S
S1067      H1070   1.406       .  S
S1068      H1069   1.407   1_556  S
C1073      C1074   1.399       .  A
C1073      C1078   1.421       .  A
C1074      C1075   1.399       .  A
C1074      H1083   1.084       .  S
C1075      C1076   1.420       .  A
C1075      S1079   1.803       .  S
C1076      C1077   1.397       .  A
C1077      C1078   1.397       .  A
C1077      H1084   1.084       .  S
C1078      S1080   1.800       .  S
S1079      H1082   1.406       .  S
S1080      H1081   1.402       .  S
C1085      C1086   1.414       .  A
C1085      C1090   1.424       .  A
C1086      C1087   1.402       .  A
C1086      H1095   1.083       .  S
C1087      C1088   1.412       .  A
C1087      S1091   1.805       .  S
C1088      C1089   1.406       .  A
C1089      C1090   1.412       .  A
C1089      H1096   1.082       .  S
C1090      S1092   1.809       .  S
S1091      H1094   1.408       .  S
S1092      H1093   1.406       .  S
C1097      C1098   1.408       .  A
C1097      C1102   1.406       .  A
C1098      C1099   1.397       .  A
C1098      H1107   1.084       .  S
C1099      C1100   1.409       .  A
C1099      S1103   1.803       .  S
C1100      C1101   1.410       .  A
C1101      C1102   1.402       .  A
C1101      H1108   1.083       .  S
C1102      S1104   1.807       .  S
S1103      H1106   1.407       .  S
S1104      H1105   1.407       .  S
C1109      C1110   1.403       .  A
C1109      C1114   1.418       .  A
C1110      C1111   1.399       .  A
C1110      H1119   1.084       .  S
C1111      C1112   1.417       .  A
C1111      S1115   1.804       .  S
C1112      C1113   1.403       .  A
C1113      C1114   1.400       .  A
C1113      H1120   1.084       .  S
C1114      S1116   1.804       .  S
S1115      H1118   1.407       .  S
S1116      H1117   1.407   1_554  S
C1121      C1122   1.401   1_565  A
C1121      C1126   1.418   1_565  A
C1122      C1123   1.405       .  A
C1122      H1131   1.083       .  S
C1123      C1124   1.429       .  A
C1123      S1127   1.813       .  S
C1124      C1125   1.410       .  A
C1125      C1126   1.411       .  A
C1125      H1132   1.083       .  S
C1126      S1128   1.802   1_545  S
S1127      H1130   1.407       .  S
S1128      H1129   1.406       .  S
C1133      C1134   1.406       .  A
C1133      C1138   1.417       .  A
C1134      C1135   1.404       .  A
C1134      H1143   1.084       .  S
C1135      C1136   1.414       .  A
C1135      S1139   1.804       .  S
C1136      C1137   1.399       .  A
C1137      C1138   1.397       .  A
C1137      H1144   1.084       .  S
C1138      S1140   1.804       .  S
S1139      H1142   1.405       .  S
S1140      H1141   1.408       .  S
C1145      C1146   1.408       .  A
C1145      C1150   1.412       .  A
C1146      C1147   1.409       .  A
C1146      H1155   1.082       .  S
C1147      C1148   1.420       .  A
C1147      S1151   1.801       .  S
C1148      C1149   1.413       .  A
C1149      C1150   1.400       .  A
C1149      H1156   1.083       .  S
C1150      S1152   1.806       .  S
S1151      H1154   1.408       .  S
S1152      H1153   1.407       .  S
C1157      C1158   1.400   1_565  A
C1157      C1162   1.414   1_565  A
C1158      C1159   1.399       .  A
C1158      H1167   1.084   1_545  S
C1159      C1160   1.422       .  A
C1159      S1163   1.804       .  S
C1160      C1161   1.408       .  A
C1161      C1162   1.406       .  A
C1161      H1168   1.083       .  S
C1162      S1164   1.803   1_545  S
S1163      H1166   1.408       .  S
S1164      H1165   1.406       .  S
C1169      C1170   1.406       .  A
C1169      C1174   1.417       .  A
C1170      C1171   1.400       .  A
C1170      H1179   1.084       .  S
C1171      C1172   1.411       .  A
C1171      S1175   1.805       .  S
C1172      C1173   1.398       .  A
C1173      C1174   1.397       .  A
C1173      H1180   1.084       .  S
C1174      S1176   1.804       .  S
S1175      H1178   1.406       .  S
S1176      H1177   1.408       .  S
C1181      C1182   1.404       .  A
C1181      C1186   1.410       .  A
C1182      C1183   1.397       .  A
C1182      H1191   1.084       .  S
C1183      C1184   1.417       .  A
C1183      S1187   1.801       .  S
C1184      C1185   1.408       .  A
C1185      C1186   1.396       .  A
C1185      H1192   1.084       .  S
C1186      S1188   1.804       .  S
S1187      H1190   1.402       .  S
S1188      H1189   1.407       .  S
C1193      C1194   1.411       .  A
C1193      C1198   1.418       .  A
C1194      C1195   1.399       .  A
C1194      H1203   1.083       .  S
C1195      C1196   1.412       .  A
C1195      S1199   1.804       .  S
C1196      C1197   1.406       .  A
C1197      C1198   1.400       .  A
C1197      H1204   1.084       .  S
C1198      S1200   1.801       .  S
S1199      H1202   1.408       .  S
S1200      H1201   1.404       .  S
C1205      C1206   1.407       .  A
C1205      C1210   1.422       .  A
C1206      C1207   1.396       .  A
C1206      H1215   1.084       .  S
C1207      C1208   1.417       .  A
C1207      S1211   1.806       .  S
C1208      C1209   1.407       .  A
C1209      C1210   1.409       .  A
C1209      H1216   1.084       .  S
C1210      S1212   1.799       .  S
S1211      H1214   1.408   1_556  S
S1212      H1213   1.408       .  S
C1217      C1218   1.397       .  A
C1217      C1222   1.419       .  A
C1218      C1219   1.405       .  A
C1218      H1227   1.083       .  S
C1219      C1220   1.418       .  A
C1219      S1223   1.805       .  S
C1220      C1221   1.396       .  A
C1221      C1222   1.401       .  A
C1221      H1228   1.084       .  S
C1222      S1224   1.801       .  S
S1223      H1226   1.407       .  S
S1224      H1225   1.407       .  S
C1229      C1230   1.411       .  A
C1229      C1234   1.407       .  A
C1230      C1231   1.399       .  A
C1230      H1239   1.084       .  S
C1231      C1232   1.405       .  A
C1231      S1235   1.800       .  S
C1232      C1233   1.412       .  A
C1233      C1234   1.402       .  A
C1233      H1240   1.084       .  S
C1234      S1236   1.804       .  S
S1235      H1238   1.405       .  S
S1236      H1237   1.405       .  S
C1241      C1242   1.404       .  A
C1241      C1246   1.417       .  A
C1242      C1243   1.402       .  A
C1242      H1251   1.084       .  S
C1243      C1244   1.416       .  A
C1243      S1247   1.804       .  S
C1244      C1245   1.400       .  A
C1245      C1246   1.398       .  A
C1245      H1252   1.084       .  S
C1246      S1248   1.804       .  S
S1247      H1250   1.407       .  S
S1248      H1249   1.407       .  S
C1253      C1254   1.400       .  A
C1253      C1258   1.421       .  A
C1254      C1255   1.398       .  A
C1254      H1263   1.084       .  S
C1255      C1256   1.419       .  A
C1255      S1259   1.804       .  S
C1256      C1257   1.400       .  A
C1257      C1258   1.399       .  A
C1257      H1264   1.084       .  S
C1258      S1260   1.805       .  S
S1259      H1262   1.405       .  S
S1260      H1261   1.408   1_554  S
C1265      C1266   1.412       .  A
C1265      C1270   1.406       .  A
C1266      C1267   1.407       .  A
C1266      H1275   1.084       .  S
C1267      C1268   1.408       .  A
C1267      S1271   1.799       .  S
C1268      C1269   1.413       .  A
C1269      C1270   1.402       .  A
C1269      H1276   1.083       .  S
C1270      S1272   1.803       .  S
S1271      H1274   1.406       .  S
S1272      H1273   1.404       .  S
C1277      C1278   1.406       .  A
C1277      C1282   1.413       .  A
C1278      C1279   1.407       .  A
C1278      H1287   1.084       .  S
C1279      C1280   1.420       .  A
C1279      S1283   1.797       .  S
C1280      C1281   1.412       .  A
C1281      C1282   1.402       .  A
C1281      H1288   1.081       .  S
C1282      S1284   1.810       .  S
S1283      H1286   1.407       .  S
S1284      H1285   1.407       .  S
C1289      C1290   1.411       .  A
C1289      C1294   1.419       .  A
C1290      C1291   1.401       .  A
C1290      H1299   1.084       .  S
C1291      C1292   1.410       .  A
C1291      S1295   1.805       .  S
C1292      C1293   1.404       .  A
C1293      C1294   1.406       .  A
C1293      H1300   1.084       .  S
C1294      S1296   1.801       .  S
S1295      H1298   1.406       .  S
S1296      H1297   1.407       .  S
C1301      C1302   1.410       .  A
C1301      C1306   1.416       .  A
C1302      C1303   1.411       .  A
C1302      H1311   1.084       .  S
C1303      C1304   1.420       .  A
C1303      S1307   1.800       .  S
C1304      C1305   1.411       .  A
C1305      C1306   1.402       .  A
C1305      H1312   1.081       .  S
C1306      S1308   1.811       .  S
S1307      H1310   1.407       .  S
S1308      H1309   1.406       .  S
C1313      C1314   1.411       .  A
C1313      C1318   1.406       .  A
C1314      C1315   1.405       .  A
C1314      H1323   1.084       .  S
C1315      C1316   1.408       .  A
C1315      S1319   1.802   1_554  S
C1316      C1317   1.411       .  A
C1317      C1318   1.401       .  A
C1317      H1324   1.083       .  S
C1318      S1320   1.802       .  S
S1319      H1322   1.404       .  S
S1320      H1321   1.404       .  S
C1325      C1326   1.406   1_556  A
C1325      C1330   1.419       .  A
C1326      C1327   1.402       .  A
C1326      H1335   1.083       .  S
C1327      C1328   1.413       .  A
C1327      S1331   1.804       .  S
C1328      C1329   1.400       .  A
C1329      C1330   1.401   1_554  A
C1329      H1336   1.084   1_554  S
C1330      S1332   1.804       .  S
S1331      H1334   1.405       .  S
S1332      H1333   1.408       .  S
C1337      C1338   1.403   1_556  A
C1337      C1342   1.408   1_556  A
C1338      C1339   1.403       .  A
C1338      H1347   1.084       .  S
C1339      C1340   1.421       .  A
C1339      S1343   1.799       .  S
C1340      C1341   1.410       .  A
C1341      C1342   1.393       .  A
C1341      H1348   1.083       .  S
C1342      S1344   1.804   1_554  S
S1343      H1346   1.408       .  S
S1344      H1345   1.407   1_556  S
C1349      C1350   1.412       .  A
C1349      C1354   1.417       .  A
C1350      C1351   1.401       .  A
C1350      H1359   1.083       .  S
C1351      C1352   1.409       .  A
C1351      S1355   1.803       .  S
C1352      C1353   1.407       .  A
C1353      C1354   1.402       .  A
C1353      H1360   1.083       .  S
C1354      S1356   1.810       .  S
S1355      H1358   1.408       .  S
S1356      H1357   1.407       .  S
C1361      C1362   1.403       .  A
C1361      C1366   1.419       .  A
C1362      C1363   1.399       .  A
C1362      H1371   1.084       .  S
C1363      C1364   1.414       .  A
C1363      S1367   1.804       .  S
C1364      C1365   1.401       .  A
C1365      C1366   1.399       .  A
C1365      H1372   1.084       .  S
C1366      S1368   1.804       .  S
S1367      H1370   1.407       .  S
S1368      H1369   1.407       .  S
C1373      C1374   1.413       .  A
C1373      C1378   1.419       .  A
C1374      C1375   1.403       .  A
C1374      H1383   1.082       .  S
C1375      C1376   1.408       .  A
C1375      S1379   1.809       .  S
C1376      C1377   1.408       .  A
C1377      C1378   1.409       .  A
C1377      H1384   1.084       .  S
C1378      S1380   1.801       .  S
S1379      H1382   1.406       .  S
S1380      H1381   1.407       .  S
C1385      C1386   1.396       .  A
C1385      C1390   1.417       .  A
C1386      C1387   1.401       .  A
C1386      H1395   1.084       .  S
C1387      C1388   1.420       .  A
C1387      S1391   1.801       .  S
C1388      C1389   1.396       .  A
C1389      C1390   1.405       .  A
C1389      H1396   1.083       .  S
C1390      S1392   1.805       .  S
S1391      H1394   1.408       .  S
S1392      H1393   1.407       .  S
C1397      C1398   1.403   1_455  A
C1397      C1402   1.407   1_455  A
C1398      C1399   1.405       .  A
C1398      H1407   1.084   1_655  S
C1399      C1400   1.420       .  A
C1399      S1403   1.800       .  S
C1400      C1401   1.412       .  A
C1401      C1402   1.396       .  A
C1401      H1408   1.083       .  S
C1402      S1404   1.805   1_655  S
S1403      H1406   1.408       .  S
S1404      H1405   1.406       .  S
C1409      C1410   1.409       .  A
C1409      C1414   1.424       .  A
C1410      C1411   1.399   1_565  A
C1410      H1419   1.083       .  S
C1411      C1412   1.411       .  A
C1411      S1415   1.804       .  S
C1412      C1413   1.403       .  A
C1413      C1414   1.407   1_545  A
C1413      H1420   1.084       .  S
C1414      S1416   1.801       .  S
S1415      H1418   1.407       .  S
S1416      H1417   1.408       .  S
C1421      C1422   1.411       .  A
C1421      C1426   1.403       .  A
C1422      C1423   1.407       .  A
C1422      H1431   1.084       .  S
C1423      C1424   1.408       .  A
C1423      S1427   1.798       .  S
C1424      C1425   1.412       .  A
C1425      C1426   1.399       .  A
C1425      H1432   1.083       .  S
C1426      S1428   1.801       .  S
S1427      H1430   1.407       .  S
S1428      H1429   1.406       .  S
C1433      C1434   1.407       .  A
C1433      C1438   1.417       .  A
C1434      C1435   1.395       .  A
C1434      H1443   1.084       .  S
C1435      C1436   1.408   1_655  A
C1435      S1439   1.805   1_655  S
C1436      C1437   1.403   1_455  A
C1437      C1438   1.402       .  A
C1437      H1444   1.084   1_655  S
C1438      S1440   1.802       .  S
S1439      H1442   1.407       .  S
S1440      H1441   1.407       .  S
C1445      C1446   1.410       .  A
C1445      C1450   1.423       .  A
C1446      C1447   1.397   1_565  A
C1446      H1455   1.083       .  S
C1447      C1448   1.409       .  A
C1447      S1451   1.804       .  S
C1448      C1449   1.404       .  A
C1449      C1450   1.408   1_545  A
C1449      H1456   1.084       .  S
C1450      S1452   1.800       .  S
S1451      H1454   1.407       .  S
S1452      H1453   1.408       .  S
C1457      C1458   1.401       .  A
C1457      C1462   1.417       .  A
C1458      C1459   1.402       .  A
C1458      H1467   1.084       .  S
C1459      C1460   1.420       .  A
C1459      S1463   1.803       .  S
C1460      C1461   1.398       .  A
C1461      C1462   1.397       .  A
C1461      H1468   1.084       .  S
C1462      S1464   1.804       .  S
S1463      H1466   1.403   1_556  S
S1464      H1465   1.407       .  S
C1469      C1470   1.409       .  A
C1469      C1474   1.416       .  A
C1470      C1471   1.403       .  A
C1470      H1479   1.083       .  S
C1471      C1472   1.410       .  A
C1471      S1475   1.809       .  S
C1472      C1473   1.404       .  A
C1473      C1474   1.399       .  A
C1473      H1480   1.084       .  S
C1474      S1476   1.800       .  S
S1475      H1478   1.407       .  S
S1476      H1477   1.407       .  S
C1481      C1482   1.412       .  A
C1481      C1486   1.408       .  A
C1482      C1483   1.400       .  A
C1482      H1491   1.083       .  S
C1483      C1484   1.405       .  A
C1483      S1487   1.802       .  S
C1484      C1485   1.411       .  A
C1485      C1486   1.404       .  A
C1485      H1492   1.084   1_556  S
C1486      S1488   1.799   1_556  S
S1487      H1490   1.405       .  S
S1488      H1489   1.405       .  S
C1493      C1494   1.400   1_455  A
C1493      C1498   1.413   1_455  A
C1494      C1495   1.399       .  A
C1494      H1503   1.084   1_655  S
C1495      C1496   1.419       .  A
C1495      S1499   1.803       .  S
C1496      C1497   1.410       .  A
C1497      C1498   1.406       .  A
C1497      H1504   1.083       .  S
C1498      S1500   1.805   1_655  S
S1499      H1502   1.408       .  S
S1500      H1501   1.405       .  S
C1505      C1506   1.408       .  A
C1505      C1510   1.411       .  A
C1506      C1507   1.408       .  A
C1506      H1515   1.084       .  S
C1507      C1508   1.420       .  A
C1507      S1511   1.801   1_554  S
C1508      C1509   1.413       .  A
C1509      C1510   1.400       .  A
C1509      H1516   1.083       .  S
C1510      S1512   1.805       .  S
S1511      H1514   1.407       .  S
S1512      H1513   1.407       .  S
C1517      C1518   1.411       .  A
C1517      C1522   1.406       .  A
C1518      C1519   1.405       .  A
C1518      H1527   1.084       .  S
C1519      C1520   1.408       .  A
C1519      S1523   1.799       .  S
C1520      C1521   1.413       .  A
C1521      C1522   1.401       .  A
C1521      H1528   1.084       .  S
C1522      S1524   1.801       .  S
S1523      H1526   1.405       .  S
S1524      H1525   1.405       .  S
C1529      C1530   1.400   1_455  A
C1529      C1534   1.414   1_455  A
C1530      C1531   1.398       .  A
C1530      H1539   1.084   1_655  S
C1531      C1532   1.416       .  A
C1531      S1535   1.803       .  S
C1532      C1533   1.406       .  A
C1533      C1534   1.405       .  A
C1533      H1540   1.084       .  S
C1534      S1536   1.804   1_655  S
S1535      H1538   1.407       .  S
S1536      H1537   1.405       .  S
C1541      C1542   1.402       .  A
C1541      C1546   1.419       .  A
C1542      C1543   1.403       .  A
C1542      H1551   1.084       .  S
C1543      C1544   1.419       .  A
C1543      S1547   1.804       .  S
C1544      C1545   1.398       .  A
C1545      C1546   1.396       .  A
C1545      H1552   1.084       .  S
C1546      S1548   1.802       .  S
S1547      H1550   1.407       .  S
S1548      H1549   1.403       .  S
C1553      C1554   1.402       .  A
C1553      C1558   1.413       .  A
C1554      C1555   1.401       .  A
C1554      H1563   1.084       .  S
C1555      C1556   1.417       .  A
C1555      S1559   1.804       .  S
C1556      C1557   1.403       .  A
C1557      C1558   1.400       .  A
C1557      H1564   1.084       .  S
C1558      S1560   1.804       .  S
S1559      H1562   1.407       .  S
S1560      H1561   1.407       .  S
C1565      C1566   1.414       .  A
C1565      C1570   1.420       .  A
C1566      C1567   1.399       .  A
C1566      H1575   1.083       .  S
C1567      C1568   1.412       .  A
C1567      S1571   1.805       .  S
C1568      C1569   1.407       .  A
C1569      C1570   1.407       .  A
C1569      H1576   1.083       .  S
C1570      S1572   1.801       .  S
S1571      H1574   1.407       .  S
S1572      H1573   1.408       .  S
C1577      C1578   1.411       .  A
C1577      C1582   1.408       .  A
C1578      C1579   1.398       .  A
C1578      H1587   1.083       .  S
C1579      C1580   1.404       .  A
C1579      S1583   1.802       .  S
C1580      C1581   1.411       .  A
C1581      C1582   1.405       .  A
C1581      H1588   1.084       .  S
C1582      S1584   1.799       .  S
S1583      H1586   1.404       .  S
S1584      H1585   1.405       .  S
C1589      C1590   1.398       .  A
C1589      C1594   1.412       .  A
C1590      C1591   1.395       .  A
C1590      H1599   1.085       .  S
C1591      C1592   1.423       .  A
C1591      S1595   1.805       .  S
C1592      C1593   1.408       .  A
C1593      C1594   1.401       .  A
C1593      H1600   1.084       .  S
C1594      S1596   1.803       .  S
S1595      H1598   1.408       .  S
S1596      H1597   1.406       .  S
C1601      C1602   1.410       .  A
C1601      C1606   1.405       .  A
C1602      C1603   1.401       .  A
C1602      H1611   1.084       .  S
C1603      C1604   1.406       .  A
C1603      S1607   1.800       .  S
C1604      C1605   1.411       .  A
C1605      C1606   1.401       .  A
C1605      H1612   1.084       .  S
C1606      S1608   1.800       .  S
S1607      H1610   1.406       .  S
S1608      H1609   1.406       .  S
C1613      C1614   1.402       .  A
C1613      C1618   1.411       .  A
C1614      C1615   1.402       .  A
C1614      H1623   1.084       .  S
C1615      C1616   1.418       .  A
C1615      S1619   1.801       .  S
C1616      C1617   1.408       .  A
C1617      C1618   1.398       .  A
C1617      H1624   1.084       .  S
C1618      S1620   1.805       .  S
S1619      H1622   1.407       .  S
S1620      H1621   1.407       .  S
C1625      C1626   1.414       .  A
C1625      C1630   1.413       .  A
C1626      C1627   1.398       .  A
C1626      H1635   1.083       .  S
C1627      C1628   1.409       .  A
C1627      S1631   1.803       .  S
C1628      C1629   1.411       .  A
C1629      C1630   1.398       .  A
C1629      H1636   1.084       .  S
C1630      S1632   1.803       .  S
S1631      H1634   1.407       .  S
S1632      H1633   1.407       .  S
C1637      C1638   1.404       .  A
C1637      C1642   1.415       .  A
C1638      C1639   1.399       .  A
C1638      H1647   1.084       .  S
C1639      C1640   1.413       .  A
C1639      S1643   1.804       .  S
C1640      C1641   1.402       .  A
C1641      C1642   1.399       .  A
C1641      H1648   1.084       .  S
C1642      S1644   1.804       .  S
S1643      H1646   1.407   1_554  S
S1644      H1645   1.407       .  S
C1649      C1650   1.397       .  A
C1649      C1654   1.422       .  A
C1650      C1651   1.405       .  A
C1650      H1659   1.084       .  S
C1651      C1652   1.421       .  A
C1651      S1655   1.801       .  S
C1652      C1653   1.397       .  A
C1653      C1654   1.405       .  A
C1653      H1660   1.084       .  S
C1654      S1656   1.801       .  S
S1655      H1658   1.407       .  S
S1656      H1657   1.407       .  S
C1661      C1662   1.407       .  A
C1661      C1666   1.417       .  A
C1662      C1663   1.405       .  A
C1662      H1671   1.084       .  S
C1663      C1664   1.415       .  A
C1663      S1667   1.802       .  S
C1664      C1665   1.402       .  A
C1665      C1666   1.400       .  A
C1665      H1672   1.084       .  S
C1666      S1668   1.803       .  S
S1667      H1670   1.405       .  S
S1668      H1669   1.408       .  S
C1673      C1674   1.399       .  A
C1673      C1678   1.416       .  A
C1674      C1675   1.396       .  A
C1674      H1683   1.084       .  S
C1675      C1676   1.419       .  A
C1675      S1679   1.803       .  S
C1676      C1677   1.409       .  A
C1677      C1678   1.408       .  A
C1677      H1684   1.084       .  S
C1678      S1680   1.804       .  S
S1679      H1682   1.407       .  S
S1680      H1681   1.405       .  S
C1685      C1686   1.413       .  A
C1685      C1690   1.422       .  A
C1686      C1687   1.401       .  A
C1686      H1695   1.083       .  S
C1687      C1688   1.412       .  A
C1687      S1691   1.805       .  S
C1688      C1689   1.408       .  A
C1689      C1690   1.411       .  A
C1689      H1696   1.084       .  S
C1690      S1692   1.801       .  S
S1691      H1694   1.407       .  S
S1692      H1693   1.408       .  S
C1697      C1698   1.395       .  A
C1697      C1702   1.421       .  A
C1698      C1699   1.402       .  A
C1698      H1707   1.084       .  S
C1699      C1700   1.422       .  A
C1699      S1703   1.800       .  S
C1700      C1701   1.396       .  A
C1701      C1702   1.402       .  A
C1701      H1708   1.084   1_554  S
C1702      S1704   1.801   1_554  S
S1703      H1706   1.407       .  S
S1704      H1705   1.407       .  S
C1709      C1710   1.409       .  A
C1709      C1714   1.419       .  A
C1710      C1711   1.399       .  A
C1710      H1719   1.084   1_556  S
C1711      C1712   1.411       .  A
C1711      S1715   1.805       .  S
C1712      C1713   1.401       .  A
C1713      C1714   1.403       .  A
C1713      H1720   1.084       .  S
C1714      S1716   1.799       .  S
S1715      H1718   1.407   1_556  S
S1716      H1717   1.408       .  S
C1721      C1722   1.400       .  A
C1721      C1726   1.410       .  A
C1722      C1723   1.401       .  A
C1722      H1731   1.083       .  S
C1723      C1724   1.421   1_554  A
C1723      S1727   1.811   1_554  S
C1724      C1725   1.408   1_556  A
C1725      C1726   1.400       .  A
C1725      H1732   1.084       .  S
C1726      S1728   1.802       .  S
S1727      H1730   1.407       .  S
S1728      H1729   1.406       .  S
C1733      C1734   1.402       .  A
C1733      C1738   1.418       .  A
C1734      C1735   1.399       .  A
C1734      H1743   1.084       .  S
C1735      C1736   1.415       .  A
C1735      S1739   1.804       .  S
C1736      C1737   1.401       .  A
C1737      C1738   1.400       .  A
C1737      H1744   1.084       .  S
C1738      S1740   1.804       .  S
S1739      H1742   1.407       .  S
S1740      H1741   1.407       .  S
C1745      C1746   1.404       .  A
C1745      C1750   1.417       .  A
C1746      C1747   1.400       .  A
C1746      H1755   1.084       .  S
C1747      C1748   1.416       .  A
C1747      S1751   1.805       .  S
C1748      C1749   1.400       .  A
C1749      C1750   1.399       .  A
C1749      H1756   1.084       .  S
C1750      S1752   1.804       .  S
S1751      H1754   1.407       .  S
S1752      H1753   1.407       .  S
C1757      C1758   1.407       .  A
C1757      C1762   1.412       .  A
C1758      C1759   1.409       .  A
C1758      H1767   1.084       .  S
C1759      C1760   1.422       .  A
C1759      S1763   1.800       .  S
C1760      C1761   1.414       .  A
C1761      C1762   1.400       .  A
C1761      H1768   1.083       .  S
C1762      S1764   1.806       .  S
S1763      H1766   1.408       .  S
S1764      H1765   1.407       .  S
C1769      C1770   1.412       .  A
C1769      C1774   1.407       .  A
C1770      C1771   1.401       .  A
C1770      H1779   1.084       .  S
C1771      C1772   1.405       .  A
C1771      S1775   1.801       .  S
C1772      C1773   1.411       .  A
C1773      C1774   1.404       .  A
C1773      H1780   1.084       .  S
C1774      S1776   1.800       .  S
S1775      H1778   1.405       .  S
S1776      H1777   1.405       .  S
C1781      C1782   1.401       .  A
C1781      C1786   1.412       .  A
C1782      C1783   1.400       .  A
C1782      H1791   1.084       .  S
C1783      C1784   1.418       .  A
C1783      S1787   1.804       .  S
C1784      C1785   1.407       .  A
C1785      C1786   1.403       .  A
C1785      H1792   1.084       .  S
C1786      S1788   1.804       .  S
S1787      H1790   1.408       .  S
S1788      H1789   1.406   1_545  S
C1793      C1794   1.406       .  A
C1793      C1798   1.409       .  A
C1794      C1795   1.410   1_655  A
C1794      H1803   1.084       .  S
C1795      C1796   1.422       .  A
C1795      S1799   1.800       .  S
C1796      C1797   1.412       .  A
C1797      C1798   1.396   1_455  A
C1797      H1804   1.083       .  S
C1798      S1800   1.805       .  S
S1799      H1802   1.407       .  S
S1800      H1801   1.407       .  S
C1805      C1806   1.412       .  A
C1805      C1810   1.406       .  A
C1806      C1807   1.407       .  A
C1806      H1815   1.084       .  S
C1807      C1808   1.409       .  A
C1807      S1811   1.800       .  S
C1808      C1809   1.412       .  A
C1809      C1810   1.401       .  A
C1809      H1816   1.083       .  S
C1810      S1812   1.802       .  S
S1811      H1814   1.405       .  S
S1812      H1813   1.404       .  S
C1817      C1818   1.402   1_565  A
C1817      C1822   1.408   1_565  A
C1818      C1819   1.403       .  A
C1818      H1827   1.084       .  S
C1819      C1820   1.420       .  A
C1819      S1823   1.800       .  S
C1820      C1821   1.408       .  A
C1821      C1822   1.396       .  A
C1821      H1828   1.084       .  S
C1822      S1824   1.804   1_545  S
S1823      H1826   1.407       .  S
S1824      H1825   1.407       .  S
C1829      C1830   1.404       .  A
C1829      C1834   1.410   1_655  A
C1830      C1831   1.406   1_655  A
C1830      H1839   1.084       .  S
C1831      C1832   1.420       .  A
C1831      S1835   1.802       .  S
C1832      C1833   1.409       .  A
C1833      C1834   1.399       .  A
C1833      H1840   1.084       .  S
C1834      S1836   1.805   1_455  S
S1835      H1838   1.407       .  S
S1836      H1837   1.407       .  S
C1841      C1842   1.409       .  A
C1841      C1846   1.412       .  A
C1842      C1843   1.396       .  A
C1842      H1851   1.084       .  S
C1843      C1844   1.411       .  A
C1843      S1847   1.803   1_556  S
C1844      C1845   1.410       .  A
C1845      C1846   1.399       .  A
C1845      H1852   1.084       .  S
C1846      S1848   1.804       .  S
S1847      H1850   1.407       .  S
S1848      H1849   1.407       .  S
C1853      C1854   1.412       .  A
C1853      C1858   1.412       .  A
C1854      C1855   1.399       .  A
C1854      H1863   1.084       .  S
C1855      C1856   1.408       .  A
C1855      S1859   1.803       .  S
C1856      C1857   1.408       .  A
C1857      C1858   1.400       .  A
C1857      H1864   1.083       .  S
C1858      S1860   1.809       .  S
S1859      H1862   1.407       .  S
S1860      H1861   1.407       .  S
C1865      C1866   1.412       .  A
C1865      C1870   1.405       .  A
C1866      C1867   1.408       .  A
C1866      H1875   1.084       .  S
C1867      C1868   1.410       .  A
C1867      S1871   1.799       .  S
C1868      C1869   1.411       .  A
C1869      C1870   1.401       .  A
C1869      H1876   1.084   1_556  S
C1870      S1872   1.798   1_556  S
S1871      H1874   1.405       .  S
S1872      H1873   1.404       .  S
C1877      C1878   1.410       .  A
C1877      C1882   1.422       .  A
C1878      C1879   1.395       .  A
C1878      H1887   1.083       .  S
C1879      C1880   1.412       .  A
C1879      S1883   1.805       .  S
C1880      C1881   1.404       .  A
C1881      C1882   1.407       .  A
C1881      H1888   1.084       .  S
C1882      S1884   1.798       .  S
S1883      H1886   1.407       .  S
S1884      H1885   1.407       .  S
C1889      C1890   1.401       .  A
C1889      C1894   1.415   1_655  A
C1890      C1891   1.401   1_655  A
C1890      H1899   1.084       .  S
C1891      C1892   1.417       .  A
C1891      S1895   1.804       .  S
C1892      C1893   1.406       .  A
C1893      C1894   1.403       .  A
C1893      H1900   1.084       .  S
C1894      S1896   1.805   1_455  S
S1895      H1898   1.408       .  S
S1896      H1897   1.403       .  S
C1901      C1902   1.415       .  A
C1901      C1906   1.417       .  A
C1902      C1903   1.403       .  A
C1902      H1911   1.083       .  S
C1903      C1904   1.409       .  A
C1903      S1907   1.805       .  S
C1904      C1905   1.407       .  A
C1905      C1906   1.412       .  A
C1905      H1912   1.083       .  S
C1906      S1908   1.807   1_554  S
S1907      H1910   1.406       .  S
S1908      H1909   1.407       .  S
C1913      C1914   1.413       .  A
C1913      C1918   1.407       .  A
C1914      C1915   1.408       .  A
C1914      H1923   1.084       .  S
C1915      C1916   1.408       .  A
C1915      S1919   1.799       .  S
C1916      C1917   1.412       .  A
C1917      C1918   1.404       .  A
C1917      H1924   1.084       .  S
C1918      S1920   1.800       .  S
S1919      H1922   1.407       .  S
S1920      H1921   1.405       .  S
C1925      C1926   1.399       .  A
C1925      C1930   1.413       .  A
C1926      C1927   1.398       .  A
C1926      H1935   1.084       .  S
C1927      C1928   1.417       .  A
C1927      S1931   1.810       .  S
C1928      C1929   1.408       .  A
C1929      C1930   1.408       .  A
C1929      H1936   1.084       .  S
C1930      S1932   1.802       .  S
S1931      H1934   1.407       .  S
S1932      H1933   1.405       .  S
C1937      C1938   1.399   1_655  A
C1937      C1942   1.414   1_655  A
C1938      C1939   1.397       .  A
C1938      H1947   1.084   1_455  S
C1939      C1940   1.420       .  A
C1939      S1943   1.804       .  S
C1940      C1941   1.409       .  A
C1941      C1942   1.406       .  A
C1941      H1948   1.084       .  S
C1942      S1944   1.804   1_455  S
S1943      H1946   1.408       .  S
S1944      H1945   1.406       .  S
C1949      C1950   1.402       .  A
C1949      C1954   1.422       .  A
C1950      C1951   1.397       .  A
C1950      H1959   1.084       .  S
C1951      C1952   1.418       .  A
C1951      S1955   1.805       .  S
C1952      C1953   1.400       .  A
C1953      C1954   1.400       .  A
C1953      H1960   1.084       .  S
C1954      S1956   1.804       .  S
S1955      H1958   1.407       .  S
S1956      H1957   1.408       .  S
C1961      C1962   1.407       .  A
C1961      C1966   1.416       .  A
C1962      C1963   1.399       .  A
C1962      H1971   1.084       .  S
C1963      C1964   1.410       .  A
C1963      S1967   1.800       .  S
C1964      C1965   1.402       .  A
C1965      C1966   1.398       .  A
C1965      H1972   1.084       .  S
C1966      S1968   1.799       .  S
S1967      H1970   1.407       .  S
S1968      H1969   1.404       .  S
C1973      C1974   1.408       .  A
C1973      C1978   1.409       .  A
C1974      C1975   1.413       .  A
C1974      H1983   1.083       .  S
C1975      C1976   1.419       .  A
C1975      S1979   1.808       .  S
C1976      C1977   1.415       .  A
C1977      C1978   1.404       .  A
C1977      H1984   1.081       .  S
C1978      S1980   1.809       .  S
S1979      H1982   1.407       .  S
S1980      H1981   1.407       .  S
