geometry optimzed in LAMMPS
_audit_creation_date              2020-12-01 
_audit_creation_method            'lammps2cif' 
_symmetry_space_group_name_H-M    'P1' 
_symmetry_Int_Tables_number       1 
_symmetry_cell_setting            triclinic 
loop_ 
_symmetry_equiv_pos_as_xyz 
  x,y,z 
_cell_length_a                    35.44985876 
_cell_length_b                    35.449836284513175 
_cell_length_c                    48.7930223501167 
_cell_angle_alpha                 90.0000652285325 
_cell_angle_beta                  89.9998930012699 
_cell_angle_gamma                 89.99908573615578 
loop_ 
_atom_site_label 
_atom_site_type_symbol 
_atom_site_fract_x 
_atom_site_fract_y 
_atom_site_fract_z 
_atom_site_charge 
Fe1        Fe  0.46131905  0.03592611  0.43749968     1.65800
Fe2        Fe  0.43682636  0.12858412  0.44302053     1.73200
Fe3        Fe  0.02057487  0.09758810  0.46713949     1.54400
O4          O  0.02116809  0.04693230  0.98566679    -0.83000
O5          O  0.47704587  0.16674174  0.42598481    -0.81400
O6          O  0.46725917  0.01823459  0.47536023    -0.85600
O7          O  0.01798184  0.02039080  0.42899153    -0.80400
O8          O  0.49244526  0.11874804  0.00191503    -0.82200
O9          O  0.42206656  0.10804371  0.40270888    -0.84900
C10         C  0.04909671  0.03840807  0.43019435     0.95800
C11         C  0.99703710  0.02128522  0.98883731     1.03300
O12         O  0.47354486  0.08800379  0.44821420    -1.13900
O13         O  0.39761133  0.09690334  0.46470161    -0.76300
O14         O  0.40484431  0.04069211  0.44724141    -0.79800
O15         O  0.04954958  0.07394224  0.43451267    -0.80500
C16         C  0.39425576  0.06150190  0.46682534     0.94700
O17         O  0.45285134  0.05289694  0.39914734    -0.78500
O18         O  0.44525967  0.15045653  0.48234865    -0.83700
C19         C  0.01078865  0.17273127  0.43460807     0.97400
C20         C  0.46288363  0.13910145  0.50365726     1.03300
O21         O  0.02746586  0.14993739  0.45045110    -0.79300
C22         C  0.43348952  0.07932802  0.38879738     1.01600
Fe23       Fe  0.47187077  0.04647333  0.31024359     1.65800
Fe24       Fe  0.37921298  0.07096599  0.30472137     1.73200
Fe25       Fe  0.41020973  0.48721803  0.28060213     1.54400
O26         O  0.46086637  0.48662496  0.26207573    -0.83000
O27         O  0.34105586  0.03074621  0.32175745    -0.81400
O28         O  0.48956477  0.04053291  0.27238366    -0.85600
O29         O  0.48740534  0.48981041  0.31875207    -0.80400
O30         O  0.38905160  0.01534852  0.24582664    -0.82200
O31         O  0.39975244  0.08572772  0.34503269    -0.84900
C32         C  0.46938801  0.45869567  0.31754811     0.95800
C33         C  0.48651375  0.01075489  0.25890591     1.03300
O34         O  0.41979356  0.03424760  0.29952810    -1.13900
O35         O  0.41089415  0.11018046  0.28304000    -0.76300
O36         O  0.46710478  0.10294797  0.30050129    -0.79800
O37         O  0.43385405  0.45824299  0.31322910    -0.80500
C38         C  0.44629568  0.11353602  0.28091683     0.94700
O39         O  0.45489800  0.05494145  0.34859561    -0.78500
O40         O  0.35734021  0.06253157  0.26539362    -0.83700
C41         C  0.33506644  0.49700349  0.31313379     0.97400
C42         C  0.36869687  0.04490920  0.24408477     1.03300
O43         O  0.35785997  0.48032693  0.29729001    -0.79300
C44         C  0.42846722  0.07430457  0.35894483     1.01600
Fe45       Fe  0.03946448  0.47927016  0.06003905     1.65800
Fe46       Fe  0.06446967  0.38669090  0.05464047     1.73200
Fe47       Fe  0.48089296  0.41730960  0.02994774     1.54400
O48         O  0.45131495  0.44082288  0.06234200    -0.83000
O49         O  0.05660004  0.36472384  0.01530372    -0.81400
O50         O  0.48265521  0.49444529  0.06833231    -0.85600
O51         O  0.03374383  0.49710327  0.02218361    -0.80400
O52         O  0.47404004  0.36493107  0.04659413    -0.82200
O53         O  0.10385926  0.41846382  0.03319667    -0.84900
C54         C  0.50419813  0.49381589  0.50847449     0.95800
C55         C  0.45162444  0.47631185  0.06687640     1.03300
O56         O  0.02762553  0.42713454  0.04920558    -1.13900
O57         O  0.07869147  0.40725803  0.09502029    -0.76300
O58         O  0.04771909  0.46229826  0.09850239    -0.79800
O59         O  0.48026492  0.46793925  0.51141592    -0.80500
C60         C  0.06704436  0.43588308  0.10892256     0.94700
O61         O  0.09598766  0.47473998  0.05038574    -0.78500
O62         O  0.02420103  0.34840108  0.07143590    -0.83700
C63         C  0.03915451  0.37588843  0.99387392     0.97400
C64         C  0.49061108  0.34223592  0.06257105     1.03300
O65         O  0.00955660  0.39622032  0.99538682    -0.79300
C66         C  0.10670285  0.45388659  0.03085068     1.01600
Fe67       Fe  0.02852748  0.46832881  0.18770367     1.65800
Fe68       Fe  0.12110654  0.44332240  0.19310077     1.73200
Fe69       Fe  0.09048917  0.02689915  0.21779449     1.54400
O70         O  0.06697549  0.05647790  0.18540075    -0.83000
O71         O  0.14307388  0.45119061  0.23243770    -0.81400
O72         O  0.01335290  0.02513778  0.17941076    -0.85600
O73         O  0.01069572  0.97404883  0.22555938    -0.80400
O74         O  0.14286747  0.03375166  0.20114774    -0.82200
O75         O  0.08933345  0.40393266  0.21454447    -0.84900
C76         C  0.01398357  0.00359496  0.23926883     0.95800
C77         C  0.03148654  0.05616838  0.18086616     1.03300
O78         O  0.08066349  0.48016704  0.19853639    -1.13900
O79         O  0.10053852  0.42910266  0.15272059    -0.76300
O80         O  0.04549810  0.46007504  0.14924010    -0.79800
O81         O  0.03985981  0.02752759  0.23632708    -0.80500
C82         C  0.07191308  0.44075055  0.13881903     0.94700
O83         O  0.03305724  0.41180551  0.19735627    -0.78500
O84         O  0.15939751  0.48359058  0.17630601    -0.83700
C85         C  0.13191007  0.46863656  0.25386765     0.97400
C86         C  0.16556284  0.01718045  0.18517110     1.03300
O87         O  0.11157870  0.99823491  0.25235491    -0.79300
C88         C  0.05391072  0.40108980  0.21689103     1.01600
Fe89       Fe  0.22187495  0.46791414  0.43749708     1.65800
Fe90       Fe  0.12921507  0.44342794  0.44301821     1.73200
Fe91       Fe  0.16021398  0.02717369  0.46713693     1.54400
O92         O  0.21087036  0.02776430  0.98566341    -0.83000
O93         O  0.09105857  0.48365033  0.42598295    -0.81400
O94         O  0.23956943  0.47385526  0.47535692    -0.85600
O95         O  0.23741165  0.02457615  0.42898769    -0.80400
O96         O  0.13905364  0.99904547  0.00191296    -0.82200
O97         O  0.14975351  0.42866765  0.40270684    -0.84900
C98         C  0.21939382  0.05569130  0.43019081     0.95800
C99         C  0.23651912  0.00363282  0.98883337     1.03300
O100        O  0.16979731  0.48014290  0.44821232    -1.13900
O101        O  0.16089443  0.40420982  0.46469848    -0.76300
O102        O  0.21710748  0.41143977  0.44724050    -0.79800
O103        O  0.18385956  0.05614429  0.43450848    -0.80500
C104        C  0.19629568  0.40085200  0.46682348     0.94700
O105        O  0.20490261  0.45944644  0.39914530    -0.78500
O106        O  0.10734364  0.45186211  0.48234627    -0.83700
C107        C  0.08506943  0.01739325  0.43460648     0.97400
C108        C  0.11869942  0.46948486  0.50365500     1.03300
O109        O  0.10786402  0.03406898  0.45044946    -0.79300
C110        C  0.17846945  0.44008836  0.38879543     1.01600
Fe111      Fe  0.21131746  0.47847034  0.31024124     1.65800
Fe112      Fe  0.18682949  0.38581185  0.30472098     1.73200
Fe113      Fe  0.27057611  0.41680865  0.28060199     1.54400
O114        O  0.27116676  0.46746463  0.26207433    -0.83000
O115        O  0.22705045  0.34765642  0.32175851    -0.81400
O116        O  0.21725677  0.49616207  0.27238064    -0.85600
O117        O  0.26797926  0.49400667  0.31874954    -0.80400
O118        O  0.24244680  0.39564890  0.24582687    -0.82200
O119        O  0.17206717  0.40635296  0.34503133    -0.84900
C120        C  0.29909459  0.47598931  0.31754695     0.95800
C121        C  0.24703607  0.49311157  0.25890377     1.03300
O122        O  0.22354586  0.42639273  0.29952709    -1.13900
O123        O  0.14761435  0.41749173  0.28303838    -0.76300
O124        O  0.15484286  0.47370295  0.30049948    -0.79800
O125        O  0.29954865  0.44045504  0.31322906    -0.80500
C126        C  0.14425533  0.45289309  0.28091544     0.94700
O127        O  0.20285112  0.46149911  0.34859344    -0.78500
O128        O  0.19526536  0.36393718  0.26539429    -0.83700
C129        C  0.26079354  0.34166656  0.31313556     0.97400
C130        C  0.21288636  0.37529468  0.24408537     1.03300
O131        O  0.27746971  0.36445930  0.29729126    -0.79300
C132        C  0.18349018  0.43506774  0.35894302     1.01600
Fe133      Fe  0.27852874  0.04606124  0.06003648     1.65800
Fe134      Fe  0.37110529  0.07107295  0.05464026     1.73200
Fe135      Fe  0.34049401  0.48749321  0.02994570     1.54400
O136        O  0.31697775  0.45790964  0.06233665    -0.83000
O137        O  0.39307328  0.06320645  0.01530316    -0.81400
O138        O  0.26335564  0.48925198  0.06832784    -0.85600
O139        O  0.26069883  0.04034108  0.02217982    -0.80400
O140        O  0.39287121  0.48064371  0.04659495    -0.82200
O141        O  0.33933073  0.11046218  0.03319770    -0.84900
C142        C  0.26398768  0.01079660  0.50847045     0.95800
C143        C  0.28148856  0.45822054  0.06687144     1.03300
O144        O  0.33066530  0.03422536  0.04920407    -1.13900
O145        O  0.35053522  0.08529191  0.09502011    -0.76300
O146        O  0.29549821  0.05431501  0.09850071    -0.79800
O147        O  0.28986660  0.48686356  0.51141132    -0.80500
C148        C  0.32191072  0.07364258  0.10892165     0.94700
O149        O  0.28305588  0.10258455  0.05038621    -0.78500
O150        O  0.40939828  0.03080695  0.07143514    -0.83700
C151        C  0.38191213  0.04575865  0.99387345     0.97400
C152        C  0.41556545  0.49721695  0.06257109     1.03300
O153        O  0.36158452  0.01615853  0.99538645    -0.79300
C154        C  0.30390789  0.11330106  0.03085117     1.01600
Fe155      Fe  0.28946161  0.03512687  0.18770212     1.65800
Fe156      Fe  0.31447040  0.12770452  0.19310067     1.73200
Fe157      Fe  0.23089278  0.09708996  0.21779504     1.54400
O158        O  0.20131062  0.07357586  0.18540269    -0.83000
O159        O  0.30660351  0.14967117  0.23243858    -0.81400
O160        O  0.23265243  0.01995372  0.17940971    -0.85600
O161        O  0.28374208  0.01729374  0.22555761    -0.80400
O162        O  0.22404148  0.14946847  0.20114787    -0.82200
O163        O  0.35386048  0.09593031  0.21454253    -0.84900
C164        C  0.25419601  0.02058252  0.23926760     0.95800
C165        C  0.20162120  0.03808686  0.18086686     1.03300
O166        O  0.27762454  0.08726292  0.19853602    -1.13900
O167        O  0.32868951  0.10713651  0.15272008    -0.76300
O168        O  0.29771485  0.05209846  0.14923860    -0.79800
O169        O  0.23026454  0.04646049  0.23632729    -0.80500
C170        C  0.31704099  0.07851204  0.13881805     0.94700
O171        O  0.34598488  0.03965475  0.19735424    -0.78500
O172        O  0.27420326  0.16599681  0.17630664    -0.83700
C173        C  0.28915667  0.13850883  0.25386847     0.97400
C174        C  0.24061356  0.17216323  0.18517150     1.03300
O175        O  0.25955798  0.11817898  0.25235532    -0.79300
C176        C  0.35670111  0.06050754  0.21688912     1.01600
Fe177      Fe  0.28987389  0.22846977  0.43750056     1.65800
Fe178      Fe  0.31436755  0.13581230  0.44302098     1.73200
Fe179      Fe  0.23061751  0.16680647  0.46713817     1.54400
O180        O  0.23002292  0.21746205  0.98566694    -0.83000
O181        O  0.27415021  0.09765429  0.42598271    -0.81400
O182        O  0.28393177  0.24616022  0.47536121    -0.85600
O183        O  0.23321156  0.24400482  0.42899140    -0.80400
O184        O  0.25874677  0.14564705  0.00191337    -0.82200
O185        O  0.32912941  0.15635373  0.40271077    -0.84900
C186        C  0.20209677  0.22598759  0.43019420     0.95800
C187        C  0.25415377  0.24310921  0.98883816     1.03300
O188        O  0.27764806  0.17639181  0.44821404    -1.13900
O189        O  0.35357918  0.16749411  0.46470523    -0.76300
O190        O  0.34634859  0.22370516  0.44724414    -0.79800
O191        O  0.20164392  0.19045312  0.43451121    -0.80500
C192        C  0.35693681  0.20289551  0.46682833     0.94700
O193        O  0.29834296  0.21149940  0.39914821    -0.78500
O194        O  0.30593160  0.11393738  0.48234722    -0.83700
C195        C  0.24040698  0.09166389  0.43460492     0.97400
C196        C  0.28830857  0.12529407  0.50365563     1.03300
O197        O  0.22372867  0.11445720  0.45044807    -0.79300
C198        C  0.31770503  0.18506801  0.38879879     1.01600
Fe199      Fe  0.27932438  0.21791728  0.31024383     1.65800
Fe200      Fe  0.37198242  0.19342360  0.30472401     1.73200
Fe201      Fe  0.34098816  0.27717265  0.28060558     1.54400
O202        O  0.29033266  0.27776737  0.26207710    -0.83000
O203        O  0.41014108  0.23364195  0.32176083    -0.81400
O204        O  0.26163349  0.22385918  0.27238321    -0.85600
O205        O  0.26379003  0.27457985  0.31875283    -0.80400
O206        O  0.36214784  0.24904278  0.24583053    -0.82200
O207        O  0.35144132  0.17866412  0.34503486    -0.84900
C208        C  0.28180784  0.30569434  0.31754998     0.95800
C209        C  0.26468482  0.25363606  0.25890609     1.03300
O210        O  0.33140260  0.23014253  0.29953010    -1.13900
O211        O  0.34030077  0.15421021  0.28304117    -0.76300
O212        O  0.28408882  0.16144252  0.30050050    -0.79800
O213        O  0.31734218  0.30614656  0.31323266    -0.80500
C214        C  0.30489935  0.15085381  0.28091690     0.94700
O215        O  0.29629456  0.20944888  0.34859617    -0.78500
O216        O  0.39385640  0.20185748  0.26539712    -0.83700
C217        C  0.41613142  0.26738479  0.31313781     0.97400
C218        C  0.38250063  0.21948078  0.24408857     1.03300
O219        O  0.39333760  0.28406239  0.29729480    -0.79300
C220        C  0.32272632  0.19008829  0.35894628     1.01600
Fe221      Fe  0.22266792  0.29606208  0.18770256     1.65800
Fe222      Fe  0.13008924  0.32107033  0.19310379     1.73200
Fe223      Fe  0.16070800  0.23749292  0.21779695     1.54400
O224        O  0.18421964  0.20791318  0.18540284    -0.83000
O225        O  0.10812575  0.31320287  0.23244237    -0.81400
O226        O  0.23784163  0.23925273  0.17940946    -0.85600
O227        O  0.24050528  0.29034171  0.22555730    -0.80400
O228        O  0.10832920  0.23063969  0.20115170    -0.82200
O229        O  0.16186361  0.36046109  0.21454434    -0.84900
C230        C  0.23721683  0.26079827  0.23926790     0.95800
C231        C  0.21970821  0.20822224  0.18086692     1.03300
O232        O  0.17053264  0.28422526  0.19853839    -1.13900
O233        O  0.15065439  0.33529101  0.15272270    -0.76300
O234        O  0.20569359  0.30431700  0.14924006    -0.79800
O235        O  0.21133825  0.23686556  0.23632800    -0.80500
C236        C  0.17927957  0.32364423  0.13882028     0.94700
O237        O  0.21813859  0.35258489  0.19735456    -0.78500
O238        O  0.09179761  0.28080128  0.17631104    -0.83700
C239        C  0.11928889  0.29575503  0.25387172     0.97400
C240        C  0.08563323  0.24721104  0.18517565     1.03300
O241        O  0.13961931  0.26615624  0.25235801    -0.79300
C242        C  0.19728658  0.36330068  0.21689010     1.01600
Fe243      Fe  0.21172882  0.28512672  0.06004071     1.65800
Fe244      Fe  0.18672176  0.37770605  0.05464062     1.73200
Fe245      Fe  0.27029839  0.34708667  0.02994677     1.54400
O246        O  0.29987758  0.32357522  0.06234112    -0.83000
O247        O  0.19458845  0.39966904  0.01530156    -0.81400
O248        O  0.26853835  0.26995278  0.06833349    -0.85600
O249        O  0.21744815  0.26729030  0.02218589    -0.80400
O250        O  0.27715254  0.39946581  0.04659165    -0.82200
O251        O  0.14732979  0.34593220  0.03320075    -0.84900
C252        C  0.24699281  0.27057838  0.50847566     0.95800
C253        C  0.29956871  0.28808663  0.06687697     1.03300
O254        O  0.22356607  0.33726225  0.04920541    -1.13900
O255        O  0.17250270  0.35714062  0.09502212    -0.76300
O256        O  0.20347490  0.30210017  0.09850339    -0.79800
O257        O  0.27092527  0.29645596  0.51141603    -0.80500
C258        C  0.18414914  0.32851464  0.10892391     0.94700
O259        O  0.15520589  0.28965648  0.05038918    -0.78500
O260        O  0.22699140  0.41599794  0.07143260    -0.83700
C261        C  0.21203672  0.38850642  0.99387209     0.97400
C262        C  0.26058150  0.42216226  0.06256761     1.03300
O263        O  0.24163526  0.36817561  0.99538573    -0.79300
C264        C  0.14448994  0.31050933  0.03085420     1.01600
Fe265      Fe  0.02932118  0.29648062  0.43750128     1.65800
Fe266      Fe  0.12197989  0.32096768  0.44302255     1.73200
Fe267      Fe  0.09098177  0.23722147  0.46714103     1.54400
O268        O  0.04032531  0.23663183  0.48566800    -0.83000
O269        O  0.16013589  0.28074600  0.42598619    -0.81400
O270        O  0.01162836  0.29054211  0.47536172    -0.85600
O271        O  0.01378459  0.23981869  0.42899324    -0.80400
O272        O  0.11214117  0.26535027  0.00191661    -0.82200
O273        O  0.10144067  0.33572857  0.40271159    -0.84900
C274        C  0.03180221  0.20870349  0.43019539     0.95800
C275        C  0.01467866  0.26076295  0.98883866     1.03300
O276        O  0.08139851  0.28425194  0.44821614    -1.13900
O277        O  0.09029958  0.36018431  0.46470347    -0.76300
O278        O  0.03408861  0.35295542  0.44724222    -0.79800
O279        O  0.06733635  0.20824973  0.43451331    -0.80500
C280        C  0.05489822  0.36354334  0.46682620     0.94700
O281        O  0.04629362  0.30494615  0.39914936    -0.78500
O282        O  0.14385232  0.31253282  0.48235004    -0.83700
C283        C  0.16612490  0.24700257  0.43460874     0.97400
C284        C  0.13249539  0.29491066  0.50365863     1.03300
O285        O  0.14333145  0.23032661  0.45045255    -0.79300
C286        C  0.07272595  0.32430578  0.38879980     1.01600
Fe287      Fe  0.03988178  0.28591811  0.31024591     1.65800
Fe288      Fe  0.06436842  0.37857806  0.30472398     1.73200
Fe289      Fe  0.48062307  0.34757860  0.28060480     1.54400
O290        O  0.48003352  0.29692228  0.26207848    -0.83000
O291        O  0.02414586  0.41673455  0.32175880    -0.81400
O292        O  0.03394196  0.26822281  0.27238613    -0.85600
O293        O  0.48321952  0.27038110  0.31875449    -0.80400
O294        O  0.00875184  0.36873907  0.24582897    -0.82200
O295        O  0.07912778  0.35804051  0.34503556    -0.84900
C296        C  0.45210413  0.28839853  0.31755085     0.95800
C297        C  0.50416441  0.27127315  0.25890932     1.03300
O298        O  0.02765329  0.33799563  0.29953004    -1.13900
O299        O  0.10358699  0.34689826  0.28304467    -0.76300
O300        O  0.09635632  0.29068591  0.30050353    -0.79800
O301        O  0.45165080  0.32393265  0.31323248    -0.80500
C302        C  0.10694424  0.31149690  0.28092020     0.94700
O303        O  0.04834822  0.30289180  0.34859763    -0.78500
O304        O  0.05593536  0.40044886  0.26539555    -0.83700
C305        C  0.49040279  0.42272317  0.31313552     0.97400
C306        C  0.03831265  0.38909309  0.24408683     1.03300
O307        O  0.47372719  0.39992854  0.29729249    -0.79300
C308        C  0.06770631  0.32932520  0.35894727     1.01600
Fe309      Fe  0.46173474  0.22926317  0.18770780     1.65800
Fe310      Fe  0.43672539  0.13668625  0.19310236     1.73200
Fe311      Fe  0.02030445  0.16729835  0.21779676     1.54400
O312        O  0.04988648  0.19081468  0.18540525    -0.83000
O313        O  0.44459365  0.11471659  0.23243886    -0.81400
O314        O  0.01854377  0.24443711  0.17941633    -0.85600
O315        O  0.46745476  0.24709065  0.22556504    -0.80400
O316        O  0.02715402  0.11492117  0.20114777    -0.82200
O317        O  0.39733640  0.16845934  0.21454654    -0.84900
C318        C  0.99700099  0.24380351  0.23927301     0.95800
C319        C  0.04957527  0.22630410  0.18087139     1.03300
O320        O  0.47357207  0.17712663  0.19853877    -1.13900
O321        O  0.42250485  0.15725808  0.15272304    -0.76300
O322        O  0.45348100  0.21229558  0.14924318    -0.79800
O323        O  0.02093467  0.21792596  0.23633103    -0.80500
C324        C  0.43415336  0.18588343  0.13882191     0.94700
O325        O  0.40521137  0.22473473  0.19735827    -0.78500
O326        O  0.47699196  0.09839476  0.17630622    -0.83700
C327        C  0.46203994  0.12587919  0.25386884     0.97400
C328        C  0.01058148  0.09222738  0.18517099     1.03300
O329        O  0.49163917  0.14620819  0.25235617    -0.79300
C330        C  0.39449533  0.20388204  0.21689308     1.01600
Fe331      Fe  0.47266560  0.21833711  0.06004112     1.65800
Fe332      Fe  0.38008861  0.19332643  0.05464370     1.73200
Fe333      Fe  0.41070091  0.27690453  0.02994856     1.54400
O334        O  0.43421540  0.30648828  0.06234009    -0.83000
O335        O  0.35812007  0.20119329  0.01530655    -0.81400
O336        O  0.48783752  0.27514657  0.06833388    -0.85600
O337        O  0.49049800  0.22405777  0.02218558    -0.80400
O338        O  0.35832258  0.28375430  0.04659635    -0.82200
O339        O  0.41186311  0.15393762  0.03320049    -0.84900
C340        C  0.48720824  0.25360325  0.50847520     0.95800
C341        C  0.46970436  0.30617780  0.06687592     1.03300
O342        O  0.42052927  0.23017332  0.04920797    -1.13900
O343        O  0.40065798  0.17910644  0.09502379    -0.76300
O344        O  0.45569511  0.21008251  0.09850500    -0.79800
O345        O  0.46132974  0.27753419  0.51141539    -0.80500
C346        C  0.42928256  0.19075492  0.10892563     0.94700
O347        O  0.46813902  0.16181387  0.05038788    -0.78500
O348        O  0.34179576  0.23359276  0.07143843    -0.83700
C349        C  0.36928215  0.21863931  0.99387630     0.97400
C350        C  0.33562825  0.26718199  0.06257295     1.03300
O351        O  0.38961206  0.24823801  0.99538882    -0.79300
C352        C  0.44728585  0.15109755  0.03085322     1.01600
Fe353      Fe  0.46131914  0.03592608  0.93749968     1.65800
Fe354      Fe  0.43682643  0.12858406  0.94302052     1.73200
Fe355      Fe  0.02057499  0.09758818  0.96713957     1.54400
O356        O  0.02116795  0.04693226  0.48566676    -0.83000
O357        O  0.47704593  0.16674166  0.92598478    -0.81400
O358        O  0.46725925  0.01823474  0.97536022    -0.85600
O359        O  0.01798193  0.02039071  0.92899150    -0.80400
O360        O  0.49244516  0.11874794  0.50191496    -0.82200
O361        O  0.42206647  0.10804367  0.90270890    -0.84900
C362        C  0.04909676  0.03840805  0.93019435     0.95800
C363        C  0.99703701  0.02128512  0.48883729     1.03300
O364        O  0.47354499  0.08800377  0.94821422    -1.13900
O365        O  0.39761125  0.09690339  0.96470155    -0.76300
O366        O  0.40484439  0.04069210  0.94724145    -0.79800
O367        O  0.04954956  0.07394223  0.93451268    -0.80500
C368        C  0.39425569  0.06150195  0.96682532     0.94700
O369        O  0.45285122  0.05289687  0.89914738    -0.78500
O370        O  0.44525975  0.15045649  0.98234864    -0.83700
C371        C  0.01078870  0.17273123  0.93460806     0.97400
C372        C  0.46288366  0.13910147  0.00365727     1.03300
O373        O  0.02746592  0.14993740  0.95045111    -0.79300
C374        C  0.43348938  0.07932794  0.88879742     1.01600
Fe375      Fe  0.47187084  0.04647331  0.81024359     1.65800
Fe376      Fe  0.37921295  0.07096595  0.80472136     1.73200
Fe377      Fe  0.41020976  0.48721797  0.78060213     1.54400
O378        O  0.46086639  0.48662490  0.76207572    -0.83000
O379        O  0.34105587  0.03074614  0.82175744    -0.81400
O380        O  0.48956467  0.04053301  0.77238359    -0.85600
O381        O  0.48740536  0.48981047  0.81875217    -0.80400
O382        O  0.38905155  0.01534842  0.74582668    -0.82200
O383        O  0.39975239  0.08572777  0.84503268    -0.84900
C384        C  0.46938801  0.45869570  0.81754812     0.95800
C385        C  0.48651371  0.01075495  0.75890587     1.03300
O386        O  0.41979360  0.03424757  0.79952810    -1.13900
O387        O  0.41089418  0.11018040  0.78303999    -0.76300
O388        O  0.46710490  0.10294796  0.80050124    -0.79800
O389        O  0.43385409  0.45824300  0.81322907    -0.80500
C390        C  0.44629571  0.11353610  0.78091686     0.94700
O391        O  0.45489797  0.05494146  0.84859563    -0.78500
O392        O  0.35734025  0.06253156  0.76539363    -0.83700
C393        C  0.33506643  0.49700346  0.81313377     0.97400
C394        C  0.36869687  0.04490913  0.74408480     1.03300
O395        O  0.35785995  0.48032687  0.79728998    -0.79300
C396        C  0.42846713  0.07430453  0.85894485     1.01600
Fe397      Fe  0.03946439  0.47927012  0.56003903     1.65800
Fe398      Fe  0.06446975  0.38669098  0.55464047     1.73200
Fe399      Fe  0.48089302  0.41730956  0.52994773     1.54400
O400        O  0.45131488  0.44082282  0.56234196    -0.83000
O401        O  0.05660011  0.36472388  0.51530375    -0.81400
O402        O  0.48265515  0.49444521  0.56833231    -0.85600
O403        O  0.03374373  0.49710321  0.52218360    -0.80400
O404        O  0.47404012  0.36493100  0.54659408    -0.82200
O405        O  0.10385937  0.41846389  0.53319669    -0.84900
C406        C  0.50419813  0.49381598  0.00847448     0.95800
C407        C  0.45162437  0.47631177  0.56687643     1.03300
O408        O  0.02762557  0.42713455  0.54920556    -1.13900
O409        O  0.07869154  0.40725807  0.59502030    -0.76300
O410        O  0.04771911  0.46229826  0.59850240    -0.79800
O411        O  0.48026496  0.46793932  0.01141593    -0.80500
C412        C  0.06704437  0.43588308  0.60892257     0.94700
O413        O  0.09598752  0.47474006  0.55038569    -0.78500
O414        O  0.02420103  0.34840110  0.57143590    -0.83700
C415        C  0.03915456  0.37588845  0.49387394     0.97400
C416        C  0.49061113  0.34223588  0.56257102     1.03300
O417        O  0.00955665  0.39622031  0.49538685    -0.79300
C418        C  0.10670275  0.45388665  0.53085064     1.01600
Fe419      Fe  0.02852754  0.46832874  0.68770367     1.65800
Fe420      Fe  0.12110659  0.44332235  0.69310083     1.73200
Fe421      Fe  0.09048920  0.02689913  0.71779447     1.54400
O422        O  0.06697548  0.05647797  0.68540075    -0.83000
O423        O  0.14307385  0.45119052  0.73243776    -0.81400
O424        O  0.01335282  0.02513790  0.67941088    -0.85600
O425        O  0.01069561  0.97404884  0.72555937    -0.80400
O426        O  0.14286748  0.03375179  0.70114769    -0.82200
O427        O  0.08933347  0.40393258  0.71454446    -0.84900
C428        C  0.01398354  0.00359498  0.73926882     0.95800
C429        C  0.03148653  0.05616845  0.68086616     1.03300
O430        O  0.08066350  0.48016695  0.69853641    -1.13900
O431        O  0.10053857  0.42910263  0.65272061    -0.76300
O432        O  0.04549815  0.46007501  0.64924011    -0.79800
O433        O  0.03985982  0.02752755  0.73632706    -0.80500
C434        C  0.07191314  0.44075049  0.63881905     0.94700
O435        O  0.03305724  0.41180544  0.69735625    -0.78500
O436        O  0.15939745  0.48359058  0.67630602    -0.83700
C437        C  0.13191015  0.46863660  0.75386766     0.97400
C438        C  0.16556289  0.01718049  0.68517107     1.03300
O439        O  0.11157878  0.99823485  0.75235490    -0.79300
C440        C  0.05391076  0.40108973  0.71689102     1.01600
Fe441      Fe  0.22187502  0.46791408  0.93749707     1.65800
Fe442      Fe  0.12921501  0.44342789  0.94301819     1.73200
Fe443      Fe  0.16021408  0.02717362  0.96713692     1.54400
O444        O  0.21087023  0.02776435  0.48566344    -0.83000
O445        O  0.09105854  0.48365031  0.92598291    -0.81400
O446        O  0.23956946  0.47385521  0.97535697    -0.85600
O447        O  0.23741159  0.02457619  0.92898767    -0.80400
O448        O  0.13905351  0.99904569  0.50191296    -0.82200
O449        O  0.14975344  0.42866772  0.90270681    -0.84900
C450        C  0.21939378  0.05569136  0.93019078     0.95800
C451        C  0.23651906  0.00363292  0.48883336     1.03300
O452        O  0.16979731  0.48014282  0.94821229    -1.13900
O453        O  0.16089446  0.40420980  0.96469844    -0.76300
O454        O  0.21710753  0.41143975  0.94724047    -0.79800
O455        O  0.18385954  0.05614434  0.93450846    -0.80500
C456        C  0.19629571  0.40085210  0.96682349     0.94700
O457        O  0.20490261  0.45944642  0.89914528    -0.78500
O458        O  0.10734374  0.45186206  0.98234630    -0.83700
C459        C  0.08506952  0.01739324  0.93460646     0.97400
C460        C  0.11869956  0.46948478  0.00365502     1.03300
O461        O  0.10786412  0.03406894  0.95044945    -0.79300
C462        C  0.17846942  0.44008834  0.88879542     1.01600
Fe463      Fe  0.21131752  0.47847032  0.81024123     1.65800
Fe464      Fe  0.18682953  0.38581197  0.80472096     1.73200
Fe465      Fe  0.27057618  0.41680865  0.78060198     1.54400
O466        O  0.27116695  0.46746470  0.76207435    -0.83000
O467        O  0.22705037  0.34765653  0.82175851    -0.81400
O468        O  0.21725686  0.49616199  0.77238062    -0.85600
O469        O  0.26797932  0.49400669  0.81874950    -0.80400
O470        O  0.24244676  0.39564907  0.74582684    -0.82200
O471        O  0.17206726  0.40635290  0.84503132    -0.84900
C472        C  0.29909463  0.47598927  0.81754698     0.95800
C473        C  0.24703623  0.49311160  0.75890379     1.03300
O474        O  0.22354592  0.42639277  0.79952704    -1.13900
O475        O  0.14761426  0.41749183  0.78303848    -0.76300
O476        O  0.15484286  0.47370299  0.80049957    -0.79800
O477        O  0.29954867  0.44045500  0.81322916    -0.80500
C478        C  0.14425539  0.45289319  0.78091550     0.94700
O479        O  0.20285108  0.46149910  0.84859343    -0.78500
O480        O  0.19526547  0.36393715  0.76539429    -0.83700
C481        C  0.26079341  0.34166654  0.81313552     0.97400
C482        C  0.21288642  0.37529470  0.74408536     1.03300
O483        O  0.27746961  0.36445924  0.79729121    -0.79300
C484        C  0.18349021  0.43506773  0.85894300     1.01600
Fe485      Fe  0.27852871  0.04606123  0.56003657     1.65800
Fe486      Fe  0.37110537  0.07107304  0.55464024     1.73200
Fe487      Fe  0.34049409  0.48749316  0.52994568     1.54400
O488        O  0.31697777  0.45790963  0.56233663    -0.83000
O489        O  0.39307341  0.06320638  0.51530316    -0.81400
O490        O  0.26335560  0.48925192  0.56832783    -0.85600
O491        O  0.26069883  0.04034115  0.52217985    -0.80400
O492        O  0.39287125  0.48064365  0.54659494    -0.82200
O493        O  0.33933071  0.11046214  0.53319769    -0.84900
C494        C  0.26398769  0.01079649  0.00847048     0.95800
C495        C  0.28148854  0.45822052  0.56687141     1.03300
O496        O  0.33066531  0.03422538  0.54920411    -1.13900
O497        O  0.35053525  0.08529195  0.59502008    -0.76300
O498        O  0.29549821  0.05431506  0.59850074    -0.79800
O499        O  0.28986656  0.48686358  0.01141135    -0.80500
C500        C  0.32191077  0.07364257  0.60892165     0.94700
O501        O  0.28305592  0.10258454  0.55038634    -0.78500
O502        O  0.40939838  0.03080700  0.57143513    -0.83700
C503        C  0.38191223  0.04575859  0.49387348     0.97400
C504        C  0.41556540  0.49721690  0.56257115     1.03300
O505        O  0.36158444  0.01615856  0.49538646    -0.79300
C506        C  0.30390785  0.11330097  0.53085122     1.01600
Fe507      Fe  0.28946168  0.03512680  0.68770211     1.65800
Fe508      Fe  0.31447032  0.12770449  0.69310065     1.73200
Fe509      Fe  0.23089288  0.09708991  0.71779504     1.54400
O510        O  0.20131076  0.07357586  0.68540267    -0.83000
O511        O  0.30660346  0.14967121  0.73243856    -0.81400
O512        O  0.23265252  0.01995370  0.67940968    -0.85600
O513        O  0.28374213  0.01729367  0.72555763    -0.80400
O514        O  0.22404152  0.14946851  0.70114798    -0.82200
O515        O  0.35386052  0.09593027  0.71454250    -0.84900
C516        C  0.25419613  0.02058251  0.73926766     0.95800
C517        C  0.20162127  0.03808692  0.68086686     1.03300
O518        O  0.27762460  0.08726284  0.69853603    -1.13900
O519        O  0.32868942  0.10713651  0.65272006    -0.76300
O520        O  0.29771498  0.05209835  0.64923858    -0.79800
O521        O  0.23026465  0.04646051  0.73632738    -0.80500
C522        C  0.31704106  0.07851197  0.63881804     0.94700
O523        O  0.34598486  0.03965468  0.69735427    -0.78500
O524        O  0.27420313  0.16599678  0.67630659    -0.83700
C525        C  0.28915664  0.13850886  0.75386845     0.97400
C526        C  0.24061347  0.17216326  0.68517153     1.03300
O527        O  0.25955797  0.11817897  0.75235529    -0.79300
C528        C  0.35670105  0.06050750  0.71688916     1.01600
Fe529      Fe  0.28987391  0.22846989  0.93750062     1.65800
Fe530      Fe  0.31436747  0.13581229  0.94302097     1.73200
Fe531      Fe  0.23061754  0.16680657  0.96713813     1.54400
O532        O  0.23002291  0.21746199  0.48566696    -0.83000
O533        O  0.27415017  0.09765436  0.92598268    -0.81400
O534        O  0.28393174  0.24616039  0.97536121    -0.85600
O535        O  0.23321158  0.24400483  0.92899141    -0.80400
O536        O  0.25874676  0.14564701  0.50191344    -0.82200
O537        O  0.32912942  0.15635371  0.90271077    -0.84900
C538        C  0.20209680  0.22598757  0.93019418     0.95800
C539        C  0.25415372  0.24310916  0.48883815     1.03300
O540        O  0.27764805  0.17639189  0.94821402    -1.13900
O541        O  0.35357904  0.16749413  0.96470521    -0.76300
O542        O  0.34634854  0.22370524  0.94724418    -0.79800
O543        O  0.20164398  0.19045312  0.93451118    -0.80500
C544        C  0.35693670  0.20289555  0.96682834     0.94700
O545        O  0.29834290  0.21149933  0.89914823    -0.78500
O546        O  0.30593164  0.11393738  0.98234722    -0.83700
C547        C  0.24040695  0.09166396  0.93460491     0.97400
C548        C  0.28830858  0.12529414  0.00365560     1.03300
O549        O  0.22372865  0.11445726  0.95044806    -0.79300
C550        C  0.31770498  0.18506797  0.88879879     1.01600
Fe551      Fe  0.27932440  0.21791723  0.81024382     1.65800
Fe552      Fe  0.37198233  0.19342355  0.80472399     1.73200
Fe553      Fe  0.34098809  0.27717260  0.78060557     1.54400
O554        O  0.29033268  0.27776731  0.76207704    -0.83000
O555        O  0.41014097  0.23364195  0.82176082    -0.81400
O556        O  0.26163337  0.22385923  0.77238325    -0.85600
O557        O  0.26378990  0.27457978  0.81875282    -0.80400
O558        O  0.36214790  0.24904278  0.74583059    -0.82200
O559        O  0.35144133  0.17866409  0.84503486    -0.84900
C560        C  0.28180767  0.30569428  0.81754995     0.95800
C561        C  0.26468477  0.25363607  0.75890609     1.03300
O562        O  0.33140254  0.23014248  0.79953007    -1.13900
O563        O  0.34030076  0.15421011  0.78304113    -0.76300
O564        O  0.28408888  0.16144247  0.80050049    -0.79800
O565        O  0.31734201  0.30614651  0.81323264    -0.80500
C566        C  0.30489935  0.15085375  0.78091687     0.94700
O567        O  0.29629455  0.20944878  0.84859614    -0.78500
O568        O  0.39385632  0.20185735  0.76539712    -0.83700
C569        C  0.41613131  0.26738488  0.81313781     0.97400
C570        C  0.38250063  0.21948076  0.74408860     1.03300
O571        O  0.39333757  0.28406239  0.79729478    -0.79300
C572        C  0.32272632  0.19008823  0.85894627     1.01600
Fe573      Fe  0.22266799  0.29606219  0.68770254     1.65800
Fe574      Fe  0.13008919  0.32107028  0.69310378     1.73200
Fe575      Fe  0.16070805  0.23749300  0.71779703     1.54400
O576        O  0.18421954  0.20791323  0.68540289    -0.83000
O577        O  0.10812576  0.31320285  0.73244237    -0.81400
O578        O  0.23784152  0.23925277  0.67940943    -0.85600
O579        O  0.24050537  0.29034171  0.72555727    -0.80400
O580        O  0.10832927  0.23063971  0.70115171    -0.82200
O581        O  0.16186368  0.36046101  0.71454432    -0.84900
C582        C  0.23721686  0.26079829  0.73926788     0.95800
C583        C  0.21970809  0.20822228  0.68086692     1.03300
O584        O  0.17053271  0.28422536  0.69853848    -1.13900
O585        O  0.15065438  0.33529100  0.65272269    -0.76300
O586        O  0.20569355  0.30431697  0.64924003    -0.79800
O587        O  0.21133830  0.23686555  0.73632800    -0.80500
C588        C  0.17927958  0.32364423  0.63882027     0.94700
O589        O  0.21813871  0.35258504  0.69735452    -0.78500
O590        O  0.09179750  0.28080123  0.67631104    -0.83700
C591        C  0.11928875  0.29575496  0.75387173     0.97400
C592        C  0.08563320  0.24721101  0.68517567     1.03300
O593        O  0.13961922  0.26615620  0.75235807    -0.79300
C594        C  0.19728665  0.36330069  0.71689008     1.01600
Fe595      Fe  0.21172885  0.28512669  0.56004080     1.65800
Fe596      Fe  0.18672171  0.37770606  0.55464061     1.73200
Fe597      Fe  0.27029832  0.34708662  0.52994676     1.54400
O598        O  0.29987748  0.32357516  0.56234113    -0.83000
O599        O  0.19458834  0.39966890  0.51530152    -0.81400
O600        O  0.26853834  0.26995269  0.56833355    -0.85600
O601        O  0.21744814  0.26729040  0.52218596    -0.80400
O602        O  0.27715247  0.39946579  0.54659163    -0.82200
O603        O  0.14732980  0.34593218  0.53320073    -0.84900
C604        C  0.24699281  0.27057834  0.00847566     0.95800
C605        C  0.29956869  0.28808658  0.56687702     1.03300
O606        O  0.22356604  0.33726222  0.54920544    -1.13900
O607        O  0.17250278  0.35714075  0.59502214    -0.76300
O608        O  0.20347477  0.30210016  0.59850341    -0.79800
O609        O  0.27092525  0.29645600  0.01141601    -0.80500
C610        C  0.18414910  0.32851474  0.60892392     0.94700
O611        O  0.15520595  0.28965647  0.55038917    -0.78500
O612        O  0.22699136  0.41599804  0.57143256    -0.83700
C613        C  0.21203664  0.38850633  0.49387208     0.97400
C614        C  0.26058148  0.42216227  0.56256757     1.03300
O615        O  0.24163530  0.36817563  0.49538574    -0.79300
C616        C  0.14448995  0.31050931  0.53085420     1.01600
Fe617      Fe  0.02932113  0.29648061  0.93750126     1.65800
Fe618      Fe  0.12197984  0.32096762  0.94302256     1.73200
Fe619      Fe  0.09098182  0.23722156  0.96714102     1.54400
O620        O  0.04032537  0.23663192  0.98566800    -0.83000
O621        O  0.16013580  0.28074593  0.92598615    -0.81400
O622        O  0.01162823  0.29054210  0.97536168    -0.85600
O623        O  0.01378460  0.23981864  0.92899322    -0.80400
O624        O  0.11214125  0.26535017  0.50191659    -0.82200
O625        O  0.10144068  0.33572852  0.90271157    -0.84900
C626        C  0.03180225  0.20870344  0.93019537     0.95800
C627        C  0.01467866  0.26076289  0.48883865     1.03300
O628        O  0.08139844  0.28425198  0.94821619    -1.13900
O629        O  0.09029962  0.36018422  0.96470357    -0.76300
O630        O  0.03408872  0.35295548  0.94724216    -0.79800
O631        O  0.06733640  0.20824972  0.93451331    -0.80500
C632        C  0.05489826  0.36354335  0.96682620     0.94700
O633        O  0.04629367  0.30494607  0.89914934    -0.78500
O634        O  0.14385238  0.31253275  0.98235001    -0.83700
C635        C  0.16612488  0.24700254  0.93460871     0.97400
C636        C  0.13249537  0.29491068  0.00365864     1.03300
O637        O  0.14333145  0.23032658  0.95045253    -0.79300
C638        C  0.07272595  0.32430571  0.88879977     1.01600
Fe639      Fe  0.03988170  0.28591809  0.81024589     1.65800
Fe640      Fe  0.06436835  0.37857801  0.80472395     1.73200
Fe641      Fe  0.48062297  0.34757856  0.78060478     1.54400
O642        O  0.48003339  0.29692218  0.76207849    -0.83000
O643        O  0.02414572  0.41673448  0.82175878    -0.81400
O644        O  0.03394198  0.26822295  0.77238606    -0.85600
O645        O  0.48321941  0.27038121  0.81875448    -0.80400
O646        O  0.00875192  0.36873899  0.74582895    -0.82200
O647        O  0.07912766  0.35804049  0.84503554    -0.84900
C648        C  0.45210404  0.28839857  0.81755092     0.95800
C649        C  0.50416433  0.27127316  0.75890930     1.03300
O650        O  0.02765329  0.33799556  0.79953002    -1.13900
O651        O  0.10358703  0.34689827  0.78304467    -0.76300
O652        O  0.09635621  0.29068602  0.80050361    -0.79800
O653        O  0.45165066  0.32393275  0.81323250    -0.80500
C654        C  0.10694410  0.31149689  0.78092021     0.94700
O655        O  0.04834826  0.30289168  0.84859762    -0.78500
O656        O  0.05593540  0.40044880  0.76539552    -0.83700
C657        C  0.49040273  0.42272315  0.81313550     0.97400
C658        C  0.03831267  0.38909303  0.74408679     1.03300
O659        O  0.47372705  0.39992852  0.79729246    -0.79300
C660        C  0.06770633  0.32932514  0.85894725     1.01600
Fe661      Fe  0.46173465  0.22926310  0.68770778     1.65800
Fe662      Fe  0.43672529  0.13668619  0.69310236     1.73200
Fe663      Fe  0.02030438  0.16729831  0.71779676     1.54400
O664        O  0.04988650  0.19081461  0.68540528    -0.83000
O665        O  0.44459362  0.11471665  0.73243890    -0.81400
O666        O  0.01854371  0.24443700  0.67941633    -0.85600
O667        O  0.46745475  0.24709062  0.72556500    -0.80400
O668        O  0.02715394  0.11492114  0.70114779    -0.82200
O669        O  0.39733631  0.16845929  0.71454661    -0.84900
C670        C  0.99700106  0.24380345  0.73927299     0.95800
C671        C  0.04957525  0.22630401  0.68087144     1.03300
O672        O  0.47357200  0.17712656  0.69853873    -1.13900
O673        O  0.42250491  0.15725802  0.65272303    -0.76300
O674        O  0.45348106  0.21229551  0.64924316    -0.79800
O675        O  0.02093475  0.21792594  0.73633102    -0.80500
C676        C  0.43415342  0.18588334  0.63882189     0.94700
O677        O  0.40521122  0.22473462  0.69735825    -0.78500
O678        O  0.47699188  0.09839470  0.67630621    -0.83700
C679        C  0.46203988  0.12587932  0.75386887     0.97400
C680        C  0.01058147  0.09222740  0.68517096     1.03300
O681        O  0.49163911  0.14620831  0.75235620    -0.79300
C682        C  0.39449521  0.20388199  0.71689309     1.01600
Fe683      Fe  0.47266567  0.21833705  0.56004113     1.65800
Fe684      Fe  0.38008855  0.19332637  0.55464369     1.73200
Fe685      Fe  0.41070100  0.27690448  0.52994855     1.54400
O686        O  0.43421543  0.30648821  0.56234009    -0.83000
O687        O  0.35811997  0.20119330  0.51530654    -0.81400
O688        O  0.48783758  0.27514652  0.56833386    -0.85600
O689        O  0.49049811  0.22405780  0.52218564    -0.80400
O690        O  0.35832262  0.28375423  0.54659638    -0.82200
O691        O  0.41186305  0.15393756  0.53320046    -0.84900
C692        C  0.48720820  0.25360323  0.00847519     0.95800
C693        C  0.46970440  0.30617775  0.56687590     1.03300
O694        O  0.42052933  0.23017324  0.54920795    -1.13900
O695        O  0.40065791  0.17910638  0.59502381    -0.76300
O696        O  0.45569506  0.21008246  0.59850499    -0.79800
O697        O  0.46132963  0.27753414  0.01141537    -0.80500
C698        C  0.42928254  0.19075486  0.60892563     0.94700
O699        O  0.46813896  0.16181381  0.55038789    -0.78500
O700        O  0.34179579  0.23359272  0.57143847    -0.83700
C701        C  0.36928220  0.21863927  0.49387630     0.97400
C702        C  0.33562830  0.26718196  0.56257301     1.03300
O703        O  0.38961225  0.24823786  0.49538884    -0.79300
C704        C  0.44728578  0.15109750  0.53085319     1.01600
Fe705      Fe  0.46131914  0.53592599  0.43749968     1.65800
Fe706      Fe  0.43682631  0.62858400  0.44302053     1.73200
Fe707      Fe  0.02057485  0.59758810  0.46713949     1.54400
O708        O  0.02116803  0.54693228  0.98566679    -0.83000
O709        O  0.47704577  0.66674172  0.42598483    -0.81400
O710        O  0.46725925  0.51823464  0.47536025    -0.85600
O711        O  0.01798200  0.52039072  0.42899153    -0.80400
O712        O  0.49244518  0.61874803  0.00191501    -0.82200
O713        O  0.42206644  0.60804360  0.40270890    -0.84900
C714        C  0.04909681  0.53840805  0.43019435     0.95800
C715        C  0.99703704  0.52128522  0.98883732     1.03300
O716        O  0.47354490  0.58800370  0.44821418    -1.13900
O717        O  0.39761127  0.59690328  0.46470157    -0.76300
O718        O  0.40484434  0.54069200  0.44724144    -0.79800
O719        O  0.04954960  0.57394225  0.43451267    -0.80500
C720        C  0.39425571  0.56150186  0.46682534     0.94700
O721        O  0.45285135  0.55289688  0.39914733    -0.78500
O722        O  0.44525963  0.65045648  0.48234865    -0.83700
C723        C  0.01078859  0.67273126  0.43460807     0.97400
C724        C  0.46288365  0.63910149  0.50365724     1.03300
O725        O  0.02746579  0.64993734  0.45045106    -0.79300
C726        C  0.43348948  0.57932796  0.38879739     1.01600
Fe727      Fe  0.47187075  0.54647321  0.31024359     1.65800
Fe728      Fe  0.37921299  0.57096600  0.30472137     1.73200
Fe729      Fe  0.41020967  0.98721806  0.28060213     1.54400
O730        O  0.46086631  0.98662499  0.26207572    -0.83000
O731        O  0.34105593  0.53074619  0.32175745    -0.81400
O732        O  0.48956470  0.54053291  0.27238366    -0.85600
O733        O  0.48740527  0.98981049  0.31875206    -0.80400
O734        O  0.38905160  0.51534847  0.24582662    -0.82200
O735        O  0.39975242  0.58572773  0.34503269    -0.84900
C736        C  0.46938794  0.95869574  0.31754811     0.95800
C737        C  0.48651373  0.51075487  0.25890590     1.03300
O738        O  0.41979355  0.53424757  0.29952810    -1.13900
O739        O  0.41089417  0.61018035  0.28303997    -0.76300
O740        O  0.46710479  0.60294782  0.30050128    -0.79800
O741        O  0.43385397  0.95824304  0.31322910    -0.80500
C742        C  0.44629570  0.61353598  0.28091685     0.94700
O743        O  0.45489804  0.55494150  0.34859562    -0.78500
O744        O  0.35734034  0.56253161  0.26539361    -0.83700
C745        C  0.33506638  0.99700350  0.31313379     0.97400
C746        C  0.36869693  0.54490918  0.24408475     1.03300
O747        O  0.35785991  0.98032697  0.29729000    -0.79300
C748        C  0.42846722  0.57430458  0.35894483     1.01600
Fe749      Fe  0.03946447  0.97927020  0.06003905     1.65800
Fe750      Fe  0.06446979  0.88669090  0.05464047     1.73200
Fe751      Fe  0.48089306  0.91730953  0.02994775     1.54400
O752        O  0.45131497  0.94082287  0.06234198    -0.83000
O753        O  0.05660015  0.86472378  0.01530370    -0.81400
O754        O  0.48265518  0.99444531  0.06833231    -0.85600
O755        O  0.03374377  0.99710331  0.02218363    -0.80400
O756        O  0.47403999  0.86493105  0.04659412    -0.82200
O757        O  0.10385927  0.91846382  0.03319666    -0.84900
C758        C  0.50419816  0.99381593  0.50847450     0.95800
C759        C  0.45162444  0.97631186  0.06687640     1.03300
O760        O  0.02762564  0.92713454  0.04920558    -1.13900
O761        O  0.07869162  0.90725807  0.09502028    -0.76300
O762        O  0.04771920  0.96229831  0.09850240    -0.79800
O763        O  0.48026501  0.96793926  0.51141593    -0.80500
C764        C  0.06704443  0.93588308  0.10892256     0.94700
O765        O  0.09598760  0.97474000  0.05038573    -0.78500
O766        O  0.02420100  0.84840115  0.07143590    -0.83700
C767        C  0.03915460  0.87588839  0.99387392     0.97400
C768        C  0.49061101  0.84223594  0.06257108     1.03300
O769        O  0.00955669  0.89622027  0.99538684    -0.79300
C770        C  0.10670278  0.95388657  0.03085065     1.01600
Fe771      Fe  0.02852760  0.96832871  0.18770367     1.65800
Fe772      Fe  0.12110663  0.94332242  0.19310077     1.73200
Fe773      Fe  0.09048925  0.52689918  0.21779449     1.54400
O774        O  0.06697550  0.55647792  0.18540076    -0.83000
O775        O  0.14307390  0.95119066  0.23243772    -0.81400
O776        O  0.01335283  0.52513788  0.17941076    -0.85600
O777        O  0.01069563  0.47404889  0.22555937    -0.80400
O778        O  0.14286754  0.53375170  0.20114773    -0.82200
O779        O  0.08933344  0.90393273  0.21454445    -0.84900
C780        C  0.01398359  0.50359501  0.23926885     0.95800
C781        C  0.03148652  0.55616842  0.18086615     1.03300
O782        O  0.08066355  0.98016699  0.19853639    -1.13900
O783        O  0.10053866  0.92910267  0.15272057    -0.76300
O784        O  0.04549823  0.96007500  0.14924011    -0.79800
O785        O  0.03985984  0.52752760  0.23632708    -0.80500
C786        C  0.07191318  0.94075047  0.13881904     0.94700
O787        O  0.03305720  0.91180546  0.19735628    -0.78500
O788        O  0.15939754  0.98359057  0.17630600    -0.83700
C789        C  0.13191009  0.96863663  0.25386764     0.97400
C790        C  0.16556291  0.51718037  0.18517109     1.03300
O791        O  0.11157876  0.49823489  0.25235491    -0.79300
C792        C  0.05391074  0.90108980  0.21689103     1.01600
Fe793      Fe  0.22187503  0.96791416  0.43749708     1.65800
Fe794      Fe  0.12921501  0.94342785  0.44301821     1.73200
Fe795      Fe  0.16021398  0.52717371  0.46713694     1.54400
O796        O  0.21087031  0.52776429  0.98566340    -0.83000
O797        O  0.09105847  0.98365029  0.42598295    -0.81400
O798        O  0.23956941  0.97385531  0.47535694    -0.85600
O799        O  0.23741159  0.52457616  0.42898769    -0.80400
O800        O  0.13905362  0.49904558  0.00191296    -0.82200
O801        O  0.14975345  0.92866765  0.40270683    -0.84900
C802        C  0.21939384  0.55569132  0.43019081     0.95800
C803        C  0.23651910  0.50363287  0.98883336     1.03300
O804        O  0.16979731  0.98014285  0.44821229    -1.13900
O805        O  0.16089439  0.90420980  0.46469849    -0.76300
O806        O  0.21710744  0.91143981  0.44724050    -0.79800
O807        O  0.18385955  0.55614436  0.43450849    -0.80500
C808        C  0.19629565  0.90085203  0.46682349     0.94700
O809        O  0.20490257  0.95944648  0.39914530    -0.78500
O810        O  0.10734378  0.95186208  0.48234629    -0.83700
C811        C  0.08506956  0.51739332  0.43460647     0.97400
C812        C  0.11869954  0.96948486  0.50365502     1.03300
O813        O  0.10786412  0.53406903  0.45044943    -0.79300
C814        C  0.17846940  0.94008841  0.38879543     1.01600
Fe815      Fe  0.21131742  0.97847040  0.31024124     1.65800
Fe816      Fe  0.18682943  0.88581190  0.30472098     1.73200
Fe817      Fe  0.27057604  0.91680869  0.28060199     1.54400
O818        O  0.27116681  0.96746463  0.26207430    -0.83000
O819        O  0.22705037  0.84765645  0.32175851    -0.81400
O820        O  0.21725685  0.99616211  0.27238065    -0.85600
O821        O  0.26797924  0.99400672  0.31874954    -0.80400
O822        O  0.24244677  0.89564895  0.24582687    -0.82200
O823        O  0.17206725  0.90635297  0.34503135    -0.84900
C824        C  0.29909455  0.97598933  0.31754695     0.95800
C825        C  0.24703617  0.99311158  0.25890375     1.03300
O826        O  0.22354579  0.92639278  0.29952708    -1.13900
O827        O  0.14761427  0.91749179  0.28303838    -0.76300
O828        O  0.15484281  0.97370300  0.30049948    -0.79800
O829        O  0.29954858  0.94045507  0.31322906    -0.80500
C830        C  0.14425530  0.95289317  0.28091544     0.94700
O831        O  0.20285103  0.96149921  0.34859345    -0.78500
O832        O  0.19526531  0.86393724  0.26539429    -0.83700
C833        C  0.26079347  0.84166658  0.31313555     0.97400
C834        C  0.21288637  0.87529472  0.24408536     1.03300
O835        O  0.27746963  0.86445934  0.29729127    -0.79300
C836        C  0.18349015  0.93506780  0.35894302     1.01600
Fe837      Fe  0.27852870  0.54606129  0.06003648     1.65800
Fe838      Fe  0.37110539  0.57107300  0.05464026     1.73200
Fe839      Fe  0.34049410  0.98749321  0.02994570     1.54400
O840        O  0.31697776  0.95790967  0.06233665    -0.83000
O841        O  0.39307341  0.56320640  0.01530316    -0.81400
O842        O  0.26335560  0.98925193  0.06832783    -0.85600
O843        O  0.26069872  0.54034109  0.02217985    -0.80400
O844        O  0.39287123  0.98064368  0.04659495    -0.82200
O845        O  0.33933079  0.61046222  0.03319769    -0.84900
C846        C  0.26398766  0.51079655  0.50847047     0.95800
C847        C  0.28148852  0.95822054  0.06687144     1.03300
O848        O  0.33066530  0.53422540  0.04920407    -1.13900
O849        O  0.35053519  0.58529191  0.09502010    -0.76300
O850        O  0.29549814  0.55431504  0.09850071    -0.79800
O851        O  0.28986655  0.98686360  0.51141132    -0.80500
C852        C  0.32191067  0.57364255  0.10892165     0.94700
O853        O  0.28305594  0.60258461  0.05038622    -0.78500
O854        O  0.40939842  0.53080700  0.07143511    -0.83700
C855        C  0.38191217  0.54575862  0.99387345     0.97400
C856        C  0.41556540  0.99721692  0.06257111     1.03300
O857        O  0.36158444  0.51615858  0.99538645    -0.79300
C858        C  0.30390792  0.61330110  0.03085118     1.01600
Fe859      Fe  0.28946161  0.53512671  0.18770213     1.65800
Fe860      Fe  0.31447037  0.62770454  0.19310066     1.73200
Fe861      Fe  0.23089294  0.59708995  0.21779503     1.54400
O862        O  0.20131080  0.57357576  0.18540269    -0.83000
O863        O  0.30660353  0.64967112  0.23243860    -0.81400
O864        O  0.23265249  0.51995354  0.17940969    -0.85600
O865        O  0.28374201  0.51729351  0.22555758    -0.80400
O866        O  0.22404155  0.64946850  0.20114793    -0.82200
O867        O  0.35386043  0.59593033  0.21454253    -0.84900
C868        C  0.25419601  0.52058242  0.23926758     0.95800
C869        C  0.20162127  0.53808681  0.18086689     1.03300
O870        O  0.27762463  0.58726285  0.19853603    -1.13900
O871        O  0.32868939  0.60713653  0.15272007    -0.76300
O872        O  0.29771499  0.55209828  0.14923862    -0.79800
O873        O  0.23026464  0.54646053  0.23632731    -0.80500
C874        C  0.31704099  0.57851200  0.13881805     0.94700
O875        O  0.34598483  0.53965473  0.19735424    -0.78500
O876        O  0.27420320  0.66599675  0.17630658    -0.83700
C877        C  0.28915672  0.63850877  0.25386849     0.97400
C878        C  0.24061354  0.67216323  0.18517150     1.03300
O879        O  0.25955805  0.61817889  0.25235533    -0.79300
C880        C  0.35670107  0.56050757  0.21688913     1.01600
Fe881      Fe  0.28987385  0.72846980  0.43750055     1.65800
Fe882      Fe  0.31436749  0.63581232  0.44302098     1.73200
Fe883      Fe  0.23061758  0.66680651  0.46713816     1.54400
O884        O  0.23002297  0.71746196  0.98566694    -0.83000
O885        O  0.27415023  0.59765431  0.42598272    -0.81400
O886        O  0.28393175  0.74616027  0.47536120    -0.85600
O887        O  0.23321154  0.74400481  0.42899140    -0.80400
O888        O  0.25874674  0.64564703  0.00191337    -0.82200
O889        O  0.32912929  0.65635368  0.40271075    -0.84900
C890        C  0.20209676  0.72598759  0.43019420     0.95800
C891        C  0.25415379  0.74310910  0.98883817     1.03300
O892        O  0.27764805  0.67639187  0.44821402    -1.13900
O893        O  0.35357912  0.66749407  0.46470522    -0.76300
O894        O  0.34634852  0.72370514  0.44724417    -0.79800
O895        O  0.20164392  0.69045311  0.43451122    -0.80500
C896        C  0.35693675  0.70289550  0.46682834     0.94700
O897        O  0.29834293  0.71149939  0.39914821    -0.78500
O898        O  0.30593155  0.61393743  0.48234721    -0.83700
C899        C  0.24040697  0.59166394  0.43460493     0.97400
C900        C  0.28830857  0.62529413  0.50365564     1.03300
O901        O  0.22372869  0.61445724  0.45044806    -0.79300
C902        C  0.31770498  0.68506799  0.38879878     1.01600
Fe903      Fe  0.27932432  0.71791730  0.31024384     1.65800
Fe904      Fe  0.37198238  0.69342362  0.30472402     1.73200
Fe905      Fe  0.34098813  0.77717266  0.28060559     1.54400
O906        O  0.29033268  0.77776735  0.26207708    -0.83000
O907        O  0.41014101  0.73364201  0.32176083    -0.81400
O908        O  0.26163342  0.72385921  0.27238324    -0.85600
O909        O  0.26378995  0.77457985  0.31875283    -0.80400
O910        O  0.36214783  0.74904278  0.24583054    -0.82200
O911        O  0.35144135  0.67866421  0.34503488    -0.84900
C912        C  0.28180774  0.80569434  0.31754997     0.95800
C913        C  0.26468483  0.75363611  0.25890609     1.03300
O914        O  0.33140253  0.73014252  0.29953007    -1.13900
O915        O  0.34030082  0.65421021  0.28304116    -0.76300
O916        O  0.28408890  0.66144256  0.30050050    -0.79800
O917        O  0.31734211  0.80614656  0.31323267    -0.80500
C918        C  0.30489941  0.65085381  0.28091690     0.94700
O919        O  0.29629454  0.70944889  0.34859617    -0.78500
O920        O  0.39385628  0.70185738  0.26539710    -0.83700
C921        C  0.41613138  0.76738485  0.31313781     0.97400
C922        C  0.38250057  0.71948073  0.24408857     1.03300
O923        O  0.39333761  0.78406244  0.29729477    -0.79300
C924        C  0.32272631  0.69008832  0.35894628     1.01600
Fe925      Fe  0.22266802  0.79606211  0.18770256     1.65800
Fe926      Fe  0.13008919  0.82107038  0.19310379     1.73200
Fe927      Fe  0.16070806  0.73749297  0.21779694     1.54400
O928        O  0.18421962  0.70791322  0.18540284    -0.83000
O929        O  0.10812569  0.81320286  0.23244238    -0.81400
O930        O  0.23784162  0.73925274  0.17940946    -0.85600
O931        O  0.24050542  0.79034171  0.22555728    -0.80400
O932        O  0.10832919  0.73063974  0.20115170    -0.82200
O933        O  0.16186363  0.86046114  0.21454432    -0.84900
C934        C  0.23721686  0.76079826  0.23926790     0.95800
C935        C  0.21970819  0.70822226  0.18086691     1.03300
O936        O  0.17053269  0.78422533  0.19853840    -1.13900
O937        O  0.15065440  0.83529102  0.15272271    -0.76300
O938        O  0.20569353  0.80431685  0.14924005    -0.79800
O939        O  0.21133828  0.73686562  0.23632800    -0.80500
C940        C  0.17927957  0.82364414  0.13882028     0.94700
O941        O  0.21813867  0.85258494  0.19735457    -0.78500
O942        O  0.09179754  0.78080133  0.17631104    -0.83700
C943        C  0.11928879  0.79575494  0.25387172     0.97400
C944        C  0.08563317  0.74721108  0.18517567     1.03300
O945        O  0.13961930  0.76615622  0.25235799    -0.79300
C946        C  0.19728658  0.86330072  0.21689010     1.01600
Fe947      Fe  0.21172892  0.78512678  0.06004070     1.65800
Fe948      Fe  0.18672173  0.87770607  0.05464063     1.73200
Fe949      Fe  0.27029835  0.84708671  0.02994676     1.54400
O950        O  0.29987754  0.82357525  0.06234111    -0.83000
O951        O  0.19458834  0.89966889  0.01530154    -0.81400
O952        O  0.26853835  0.76995280  0.06833350    -0.85600
O953        O  0.21744813  0.76729033  0.02218587    -0.80400
O954        O  0.27715251  0.89946584  0.04659165    -0.82200
O955        O  0.14732988  0.84593220  0.03320072    -0.84900
C956        C  0.24699284  0.77057833  0.50847572     0.95800
C957        C  0.29956871  0.78808666  0.06687696     1.03300
O958        O  0.22356611  0.83726232  0.04920545    -1.13900
O959        O  0.17250265  0.85714065  0.09502215    -0.76300
O960        O  0.20347490  0.80210020  0.09850337    -0.79800
O961        O  0.27092530  0.79645597  0.51141604    -0.80500
C962        C  0.18414910  0.82851467  0.10892392     0.94700
O963        O  0.15520601  0.78965651  0.05038916    -0.78500
O964        O  0.22699136  0.91599799  0.07143259    -0.83700
C965        C  0.21203662  0.88850628  0.99387207     0.97400
C966        C  0.26058151  0.92216226  0.06256761     1.03300
O967        O  0.24163524  0.86817560  0.99538572    -0.79300
C968        C  0.14448995  0.81050933  0.03085421     1.01600
Fe969      Fe  0.02932116  0.79648067  0.43750128     1.65800
Fe970      Fe  0.12197988  0.82096773  0.44302256     1.73200
Fe971      Fe  0.09098184  0.73722151  0.46714102     1.54400
O972        O  0.04032528  0.73663178  0.48566797    -0.83000
O973        O  0.16013585  0.78074604  0.42598618    -0.81400
O974        O  0.01162833  0.79054210  0.47536174    -0.85600
O975        O  0.01378458  0.73981872  0.42899324    -0.80400
O976        O  0.11214117  0.76535016  0.00191662    -0.82200
O977        O  0.10144071  0.83572858  0.40271158    -0.84900
C978        C  0.03180221  0.70870351  0.43019541     0.95800
C979        C  0.01467862  0.76076288  0.98883864     1.03300
O980        O  0.08139852  0.78425197  0.44821613    -1.13900
O981        O  0.09029956  0.86018437  0.46470350    -0.76300
O982        O  0.03408867  0.85295547  0.44724218    -0.79800
O983        O  0.06733638  0.70824977  0.43451330    -0.80500
C984        C  0.05489819  0.86354334  0.46682620     0.94700
O985        O  0.04629361  0.80494625  0.39914936    -0.78500
O986        O  0.14385240  0.81253282  0.48235004    -0.83700
C987        C  0.16612488  0.74700260  0.43460873     0.97400
C988        C  0.13249538  0.79491070  0.50365864     1.03300
O989        O  0.14333147  0.73032666  0.45045255    -0.79300
C990        C  0.07272595  0.82430581  0.38879979     1.01600
Fe991      Fe  0.03988172  0.78591812  0.31024592     1.65800
Fe992      Fe  0.06436840  0.87857805  0.30472398     1.73200
Fe993      Fe  0.48062302  0.84757862  0.28060481     1.54400
O994        O  0.48003347  0.79692225  0.26207847    -0.83000
O995        O  0.02414580  0.91673460  0.32175879    -0.81400
O996        O  0.03394192  0.76822280  0.27238614    -0.85600
O997        O  0.48321946  0.77038116  0.31875449    -0.80400
O998        O  0.00875191  0.86873904  0.24582897    -0.82200
O999        O  0.07912774  0.85804057  0.34503557    -0.84900
C1000       C  0.45210408  0.78839858  0.31755087     0.95800
C1001       C  0.50416431  0.77127312  0.25890934     1.03300
O1002       O  0.02765336  0.83799561  0.29953003    -1.13900
O1003       O  0.10358692  0.84689816  0.28304467    -0.76300
O1004       O  0.09635625  0.79068583  0.30050356    -0.79800
O1005       O  0.45165074  0.82393270  0.31323249    -0.80500
C1006       C  0.10694414  0.81149681  0.28092020     0.94700
O1007       O  0.04834819  0.80289186  0.34859764    -0.78500
O1008       O  0.05593551  0.90044869  0.26539553    -0.83700
C1009       C  0.49040272  0.92272322  0.31313552     0.97400
C1010       C  0.03831272  0.88909301  0.24408681     1.03300
O1011       O  0.47372712  0.89992858  0.29729249    -0.79300
C1012       C  0.06770634  0.82932525  0.35894727     1.01600
Fe1013     Fe  0.46173466  0.72926317  0.18770780     1.65800
Fe1014     Fe  0.43672533  0.63668613  0.19310236     1.73200
Fe1015     Fe  0.02030443  0.66729827  0.21779675     1.54400
O1016       O  0.04988641  0.69081471  0.18540525    -0.83000
O1017       O  0.44459361  0.61471663  0.23243889    -0.81400
O1018       O  0.01854369  0.74443716  0.17941633    -0.85600
O1019       O  0.46745474  0.74709064  0.22556503    -0.80400
O1020       O  0.02715407  0.61492120  0.20114768    -0.82200
O1021       O  0.39733631  0.66845922  0.21454655    -0.84900
C1022       C  0.99700098  0.74380342  0.23927302     0.95800
C1023       C  0.04957519  0.72630414  0.18087140     1.03300
O1024       O  0.47357204  0.67712657  0.19853874    -1.13900
O1025       O  0.42250482  0.65725793  0.15272303    -0.76300
O1026       O  0.45348087  0.71229553  0.14924319    -0.79800
O1027       O  0.02093463  0.71792589  0.23633104    -0.80500
C1028       C  0.43415327  0.68588332  0.13882191     0.94700
O1029       O  0.40521130  0.72473458  0.19735825    -0.78500
O1030       O  0.47699187  0.59839471  0.17630621    -0.83700
C1031       C  0.46203994  0.62587921  0.25386887     0.97400
C1032       C  0.01058154  0.59222743  0.18517093     1.03300
O1033       O  0.49163922  0.64620812  0.25235618    -0.79300
C1034       C  0.39449526  0.70388193  0.21689307     1.01600
Fe1035     Fe  0.47266572  0.71833714  0.06004113     1.65800
Fe1036     Fe  0.38008859  0.69332648  0.05464370     1.73200
Fe1037     Fe  0.41070092  0.77690454  0.02994856     1.54400
O1038       O  0.43421537  0.80648817  0.06234013    -0.83000
O1039       O  0.35812002  0.70119336  0.01530655    -0.81400
O1040       O  0.48783763  0.77514662  0.06833389    -0.85600
O1041       O  0.49049802  0.72405778  0.02218558    -0.80400
O1042       O  0.35832254  0.78375428  0.04659634    -0.82200
O1043       O  0.41186310  0.65393768  0.03320049    -0.84900
C1044       C  0.48720818  0.75360322  0.50847520     0.95800
C1045       C  0.46970434  0.80617780  0.06687593     1.03300
O1046       O  0.42052933  0.73017335  0.04920798    -1.13900
O1047       O  0.40065787  0.67910648  0.09502379    -0.76300
O1048       O  0.45569513  0.71008238  0.09850501    -0.79800
O1049       O  0.46132964  0.77753412  0.51141536    -0.80500
C1050       C  0.42928251  0.69075487  0.10892563     0.94700
O1051       O  0.46813903  0.66181392  0.05038788    -0.78500
O1052       O  0.34179572  0.73359277  0.07143843    -0.83700
C1053       C  0.36928227  0.71863930  0.99387629     0.97400
C1054       C  0.33562822  0.76718199  0.06257295     1.03300
O1055       O  0.38961227  0.74823791  0.99538883    -0.79300
C1056       C  0.44728584  0.65109762  0.03085321     1.01600
Fe1057     Fe  0.46131909  0.53592612  0.93749968     1.65800
Fe1058     Fe  0.43682641  0.62858412  0.94302052     1.73200
Fe1059     Fe  0.02057493  0.59758811  0.96713957     1.54400
O1060       O  0.02116801  0.54693226  0.48566677    -0.83000
O1061       O  0.47704592  0.66674172  0.92598479    -0.81400
O1062       O  0.46725917  0.51823477  0.97536024    -0.85600
O1063       O  0.01798189  0.52039078  0.92899151    -0.80400
O1064       O  0.49244522  0.61874803  0.50191495    -0.82200
O1065       O  0.42206656  0.60804371  0.90270889    -0.84900
C1066       C  0.04909675  0.53840806  0.93019433     0.95800
C1067       C  0.99703698  0.52128512  0.48883730     1.03300
O1068       O  0.47354493  0.58800379  0.94821421    -1.13900
O1069       O  0.39761137  0.59690339  0.96470158    -0.76300
O1070       O  0.40484435  0.54069214  0.94724141    -0.79800
O1071       O  0.04954961  0.57394222  0.93451270    -0.80500
C1072       C  0.39425575  0.56150198  0.96682533     0.94700
O1073       O  0.45285132  0.55289693  0.89914739    -0.78500
O1074       O  0.44525967  0.65045654  0.98234864    -0.83700
C1075       C  0.01078870  0.67273125  0.93460806     0.97400
C1076       C  0.46288363  0.63910152  0.00365727     1.03300
O1077       O  0.02746589  0.64993738  0.95045112    -0.79300
C1078       C  0.43348946  0.57932799  0.88879742     1.01600
Fe1079     Fe  0.47187082  0.54647333  0.81024359     1.65800
Fe1080     Fe  0.37921302  0.57096597  0.80472135     1.73200
Fe1081     Fe  0.41020972  0.98721800  0.78060213     1.54400
O1082       O  0.46086636  0.98662499  0.76207574    -0.83000
O1083       O  0.34105590  0.53074616  0.82175741    -0.81400
O1084       O  0.48956477  0.54053288  0.77238364    -0.85600
O1085       O  0.48740533  0.98981043  0.81875217    -0.80400
O1086       O  0.38905151  0.51534844  0.74582670    -0.82200
O1087       O  0.39975247  0.58572771  0.84503268    -0.84900
C1088       C  0.46938799  0.95869568  0.81754812     0.95800
C1089       C  0.48651372  0.51075483  0.75890586     1.03300
O1090       O  0.41979362  0.53424756  0.79952808    -1.13900
O1091       O  0.41089417  0.61018044  0.78303999    -0.76300
O1092       O  0.46710483  0.60294796  0.80050125    -0.79800
O1093       O  0.43385405  0.95824298  0.81322907    -0.80500
C1094       C  0.44629568  0.61353604  0.78091682     0.94700
O1095       O  0.45489804  0.55494147  0.84859563    -0.78500
O1096       O  0.35734023  0.56253162  0.76539364    -0.83700
C1097       C  0.33506636  0.99700346  0.81313376     0.97400
C1098       C  0.36869687  0.54490917  0.74408481     1.03300
O1099       O  0.35785988  0.98032691  0.79728995    -0.79300
C1100       C  0.42846724  0.57430452  0.85894485     1.01600
Fe1101     Fe  0.03946440  0.97927014  0.56003903     1.65800
Fe1102     Fe  0.06446969  0.88669089  0.55464047     1.73200
Fe1103     Fe  0.48089298  0.91730960  0.52994773     1.54400
O1104       O  0.45131499  0.94082287  0.56234199    -0.83000
O1105       O  0.05660002  0.86472383  0.51530374    -0.81400
O1106       O  0.48265518  0.99444530  0.56833230    -0.85600
O1107       O  0.03374383  0.99710326  0.52218359    -0.80400
O1108       O  0.47404004  0.86493106  0.54659408    -0.82200
O1109       O  0.10385931  0.91846383  0.53319664    -0.84900
C1110       C  0.50419809  0.99381598  0.00847450     0.95800
C1111       C  0.45162443  0.97631182  0.56687641     1.03300
O1112       O  0.02762554  0.92713453  0.54920556    -1.13900
O1113       O  0.07869151  0.90725802  0.59502030    -0.76300
O1114       O  0.04771908  0.96229825  0.59850240    -0.79800
O1115       O  0.48026495  0.96793929  0.01141594    -0.80500
C1116       C  0.06704439  0.93588307  0.60892256     0.94700
O1117       O  0.09598761  0.97473998  0.55038574    -0.78500
O1118       O  0.02420099  0.84840111  0.57143591    -0.83700
C1119       C  0.03915447  0.87588838  0.49387395     0.97400
C1120       C  0.49061107  0.84223591  0.56257103     1.03300
O1121       O  0.00955657  0.89622030  0.49538684    -0.79300
C1122       C  0.10670286  0.95388660  0.53085066     1.01600
Fe1123     Fe  0.02852747  0.96832880  0.68770367     1.65800
Fe1124     Fe  0.12110657  0.94332240  0.69310084     1.73200
Fe1125     Fe  0.09048917  0.52689912  0.71779447     1.54400
O1126       O  0.06697546  0.55647791  0.68540074    -0.83000
O1127       O  0.14307394  0.95119060  0.73243775    -0.81400
O1128       O  0.01335285  0.52513780  0.67941087    -0.85600
O1129       O  0.01069569  0.47404880  0.72555936    -0.80400
O1130       O  0.14286741  0.53375170  0.70114770    -0.82200
O1131       O  0.08933342  0.90393265  0.71454445    -0.84900
C1132       C  0.01398358  0.50359497  0.73926881     0.95800
C1133       C  0.03148651  0.55616839  0.68086618     1.03300
O1134       O  0.08066346  0.98016699  0.69853640    -1.13900
O1135       O  0.10053857  0.92910266  0.65272063    -0.76300
O1136       O  0.04549815  0.96007504  0.64924009    -0.79800
O1137       O  0.03985983  0.52752754  0.73632707    -0.80500
C1138       C  0.07191314  0.94075054  0.63881905     0.94700
O1139       O  0.03305717  0.91180549  0.69735626    -0.78500
O1140       O  0.15939753  0.98359062  0.67630605    -0.83700
C1141       C  0.13191013  0.96863657  0.75386768     0.97400
C1142       C  0.16556279  0.51718046  0.68517108     1.03300
O1143       O  0.11157880  0.49823491  0.75235489    -0.79300
C1144       C  0.05391070  0.90108978  0.71689101     1.01600
Fe1145     Fe  0.22187500  0.96791413  0.93749707     1.65800
Fe1146     Fe  0.12921510  0.94342793  0.94301819     1.73200
Fe1147     Fe  0.16021403  0.52717366  0.96713691     1.54400
O1148       O  0.21087024  0.52776429  0.48566345    -0.83000
O1149       O  0.09105858  0.98365030  0.92598291    -0.81400
O1150       O  0.23956943  0.97385521  0.97535697    -0.85600
O1151       O  0.23741166  0.52457610  0.92898767    -0.80400
O1152       O  0.13905350  0.49904561  0.50191295    -0.82200
O1153       O  0.14975356  0.92866764  0.90270682    -0.84900
C1154       C  0.21939384  0.55569127  0.93019079     0.95800
C1155       C  0.23651907  0.50363283  0.48883336     1.03300
O1156       O  0.16979737  0.98014285  0.94821229    -1.13900
O1157       O  0.16089442  0.90420981  0.96469845    -0.76300
O1158       O  0.21710748  0.91143976  0.94724049    -0.79800
O1159       O  0.18385959  0.55614426  0.93450846    -0.80500
C1160       C  0.19629564  0.90085199  0.96682348     0.94700
O1161       O  0.20490266  0.95944643  0.89914528    -0.78500
O1162       O  0.10734367  0.95186207  0.98234626    -0.83700
C1163       C  0.08506948  0.51739325  0.93460646     0.97400
C1164       C  0.11869950  0.96948477  0.00365502     1.03300
O1165       O  0.10786407  0.53406897  0.95044945    -0.79300
C1166       C  0.17846950  0.94008835  0.88879541     1.01600
Fe1167     Fe  0.21131749  0.97847033  0.81024123     1.65800
Fe1168     Fe  0.18682952  0.88581184  0.80472097     1.73200
Fe1169     Fe  0.27057613  0.91680864  0.78060198     1.54400
O1170       O  0.27116684  0.96746461  0.76207432    -0.83000
O1171       O  0.22705041  0.84765641  0.82175852    -0.81400
O1172       O  0.21725682  0.99616203  0.77238061    -0.85600
O1173       O  0.26797925  0.99400666  0.81874950    -0.80400
O1174       O  0.24244673  0.89564896  0.74582685    -0.82200
O1175       O  0.17206722  0.90635295  0.84503132    -0.84900
C1176       C  0.29909457  0.97598927  0.81754698     0.95800
C1177       C  0.24703617  0.99311158  0.75890378     1.03300
O1178       O  0.22354589  0.92639273  0.79952706    -1.13900
O1179       O  0.14761435  0.91749174  0.78303846    -0.76300
O1180       O  0.15484289  0.97370293  0.80049955    -0.79800
O1181       O  0.29954863  0.94045500  0.81322914    -0.80500
C1182       C  0.14425539  0.95289309  0.78091550     0.94700
O1183       O  0.20285117  0.96149910  0.84859343    -0.78500
O1184       O  0.19526537  0.86393713  0.76539428    -0.83700
C1185       C  0.26079348  0.84166654  0.81313553     0.97400
C1186       C  0.21288635  0.87529467  0.74408535     1.03300
O1187       O  0.27746961  0.86445928  0.79729122    -0.79300
C1188       C  0.18349023  0.93506773  0.85894300     1.01600
Fe1189     Fe  0.27852863  0.54606125  0.56003656     1.65800
Fe1190     Fe  0.37110532  0.57107294  0.55464025     1.73200
Fe1191     Fe  0.34049405  0.98749319  0.52994568     1.54400
O1192       O  0.31697779  0.95790961  0.56233662    -0.83000
O1193       O  0.39307334  0.56320643  0.51530316    -0.81400
O1194       O  0.26335568  0.98925193  0.56832785    -0.85600
O1195       O  0.26069879  0.54034110  0.52217984    -0.80400
O1196       O  0.39287125  0.98064368  0.54659495    -0.82200
O1197       O  0.33933076  0.61046215  0.53319771    -0.84900
C1198       C  0.26398767  0.51079652  0.00847046     0.95800
C1199       C  0.28148858  0.95822050  0.56687142     1.03300
O1200       O  0.33066524  0.53422534  0.54920409    -1.13900
O1201       O  0.35053525  0.58529190  0.59502009    -0.76300
O1202       O  0.29549823  0.55431498  0.59850074    -0.79800
O1203       O  0.28986662  0.98686354  0.01141135    -0.80500
C1204       C  0.32191075  0.57364256  0.60892165     0.94700
O1205       O  0.28305596  0.60258458  0.55038633    -0.78500
O1206       O  0.40939831  0.53080694  0.57143514    -0.83700
C1207       C  0.38191219  0.54575860  0.49387347     0.97400
C1208       C  0.41556544  0.99721694  0.56257113     1.03300
O1209       O  0.36158453  0.51615851  0.49538647    -0.79300
C1210       C  0.30390791  0.61330102  0.53085123     1.01600
Fe1211     Fe  0.28946165  0.53512686  0.68770211     1.65800
Fe1212     Fe  0.31447042  0.62770451  0.69310065     1.73200
Fe1213     Fe  0.23089281  0.59708995  0.71779504     1.54400
O1214       O  0.20131067  0.57357585  0.68540267    -0.83000
O1215       O  0.30660349  0.64967111  0.73243857    -0.81400
O1216       O  0.23265245  0.51995371  0.67940969    -0.85600
O1217       O  0.28374207  0.51729374  0.72555761    -0.80400
O1218       O  0.22404153  0.64946850  0.70114795    -0.82200
O1219       O  0.35386054  0.59593030  0.71454252    -0.84900
C1220       C  0.25419607  0.52058256  0.73926766     0.95800
C1221       C  0.20162120  0.53808687  0.68086686     1.03300
O1222       O  0.27762459  0.58726291  0.69853602    -1.13900
O1223       O  0.32868940  0.60713655  0.65272005    -0.76300
O1224       O  0.29771490  0.55209841  0.64923858    -0.79800
O1225       O  0.23026458  0.54646054  0.73632739    -0.80500
C1226       C  0.31704099  0.57851203  0.63881803     0.94700
O1227       O  0.34598493  0.53965473  0.69735425    -0.78500
O1228       O  0.27420325  0.66599678  0.67630663    -0.83700
C1229       C  0.28915659  0.63850883  0.75386846     0.97400
C1230       C  0.24061359  0.67216324  0.68517151     1.03300
O1231       O  0.25955787  0.61817903  0.75235531    -0.79300
C1232       C  0.35670113  0.56050754  0.71688915     1.01600
Fe1233     Fe  0.28987392  0.72846976  0.93750063     1.65800
Fe1234     Fe  0.31436757  0.63581230  0.94302097     1.73200
Fe1235     Fe  0.23061749  0.66680647  0.96713813     1.54400
O1236       O  0.23002292  0.71746203  0.48566695    -0.83000
O1237       O  0.27415022  0.59765429  0.92598272    -0.81400
O1238       O  0.28393184  0.74616020  0.97536126    -0.85600
O1239       O  0.23321158  0.74400482  0.92899142    -0.80400
O1240       O  0.25874677  0.64564706  0.50191346    -0.82200
O1241       O  0.32912944  0.65635372  0.90271075    -0.84900
C1242       C  0.20209678  0.72598759  0.93019420     0.95800
C1243       C  0.25415377  0.74310916  0.48883818     1.03300
O1244       O  0.27764804  0.67639178  0.94821401    -1.13900
O1245       O  0.35357921  0.66749416  0.96470519    -0.76300
O1246       O  0.34634863  0.72370526  0.94724418    -0.79800
O1247       O  0.20164394  0.69045313  0.93451119    -0.80500
C1248       C  0.35693688  0.70289556  0.96682833     0.94700
O1249       O  0.29834302  0.71149940  0.89914824    -0.78500
O1250       O  0.30593166  0.61393743  0.98234722    -0.83700
C1251       C  0.24040697  0.59166388  0.93460490     0.97400
C1252       C  0.28830862  0.62529418  0.00365559     1.03300
O1253       O  0.22372858  0.61445719  0.95044802    -0.79300
C1254       C  0.31770507  0.68506801  0.88879878     1.01600
Fe1255     Fe  0.27932442  0.71791727  0.81024381     1.65800
Fe1256     Fe  0.37198244  0.69342358  0.80472400     1.73200
Fe1257     Fe  0.34098817  0.77717265  0.78060557     1.54400
O1258       O  0.29033266  0.77776734  0.76207706    -0.83000
O1259       O  0.41014112  0.73364193  0.82176080    -0.81400
O1260       O  0.26163349  0.72385916  0.77238319    -0.85600
O1261       O  0.26378998  0.77457982  0.81875281    -0.80400
O1262       O  0.36214789  0.74904283  0.74583057    -0.82200
O1263       O  0.35144137  0.67866411  0.84503484    -0.84900
C1264       C  0.28180774  0.80569431  0.81754994     0.95800
C1265       C  0.26468476  0.75363608  0.75890610     1.03300
O1266       O  0.33140263  0.73014252  0.79953009    -1.13900
O1267       O  0.34030076  0.65421018  0.78304113    -0.76300
O1268       O  0.28408886  0.66144252  0.80050049    -0.79800
O1269       O  0.31734210  0.80614657  0.81323262    -0.80500
C1270       C  0.30489935  0.65085380  0.78091687     0.94700
O1271       O  0.29629461  0.70944888  0.84859615    -0.78500
O1272       O  0.39385631  0.70185740  0.76539711    -0.83700
C1273       C  0.41613145  0.76738479  0.81313781     0.97400
C1274       C  0.38250062  0.71948080  0.74408859     1.03300
O1275       O  0.39333765  0.78406239  0.79729480    -0.79300
C1276       C  0.32272636  0.69008829  0.85894626     1.01600
Fe1277     Fe  0.22266794  0.79606206  0.68770255     1.65800
Fe1278     Fe  0.13008915  0.82107032  0.69310378     1.73200
Fe1279     Fe  0.16070802  0.73749290  0.71779703     1.54400
O1280       O  0.18421963  0.70791318  0.68540287    -0.83000
O1281       O  0.10812573  0.81320284  0.73244238    -0.81400
O1282       O  0.23784163  0.73925270  0.67940943    -0.85600
O1283       O  0.24050529  0.79034169  0.72555728    -0.80400
O1284       O  0.10832926  0.73063970  0.70115173    -0.82200
O1285       O  0.16186360  0.86046108  0.71454430    -0.84900
C1286       C  0.23721678  0.76079829  0.73926792     0.95800
C1287       C  0.21970817  0.70822221  0.68086691     1.03300
O1288       O  0.17053263  0.78422529  0.69853849    -1.13900
O1289       O  0.15065438  0.83529099  0.65272269    -0.76300
O1290       O  0.20569361  0.80431699  0.64924004    -0.79800
O1291       O  0.21133826  0.73686554  0.73632801    -0.80500
C1292       C  0.17927958  0.82364424  0.63882028     0.94700
O1293       O  0.21813862  0.85258488  0.69735454    -0.78500
O1294       O  0.09179760  0.78080124  0.67631101    -0.83700
C1295       C  0.11928889  0.79575502  0.75387174     0.97400
C1296       C  0.08563325  0.74721102  0.68517567     1.03300
O1297       O  0.13961934  0.76615624  0.75235806    -0.79300
C1298       C  0.19728657  0.86330066  0.71689008     1.01600
Fe1299     Fe  0.21172883  0.78512672  0.56004080     1.65800
Fe1300     Fe  0.18672177  0.87770604  0.55464061     1.73200
Fe1301     Fe  0.27029839  0.84708664  0.52994675     1.54400
O1302       O  0.29987752  0.82357523  0.56234115    -0.83000
O1303       O  0.19458835  0.89966895  0.51530153    -0.81400
O1304       O  0.26853837  0.76995275  0.56833354    -0.85600
O1305       O  0.21744814  0.76729043  0.52218595    -0.80400
O1306       O  0.27715246  0.89946580  0.54659160    -0.82200
O1307       O  0.14732981  0.84593219  0.53320074    -0.84900
C1308       C  0.24699283  0.77057837  0.00847563     0.95800
C1309       C  0.29956871  0.78808662  0.56687701     1.03300
O1310       O  0.22356609  0.83726223  0.54920542    -1.13900
O1311       O  0.17250275  0.85714065  0.59502211    -0.76300
O1312       O  0.20347479  0.80210011  0.59850342    -0.79800
O1313       O  0.27092519  0.79645603  0.01141599    -0.80500
C1314       C  0.18414913  0.82851464  0.60892392     0.94700
O1315       O  0.15520588  0.78965646  0.55038918    -0.78500
O1316       O  0.22699140  0.91599795  0.57143260    -0.83700
C1317       C  0.21203660  0.88850632  0.49387209     0.97400
C1318       C  0.26058149  0.92216224  0.56256759     1.03300
O1319       O  0.24163521  0.86817554  0.49538573    -0.79300
C1320       C  0.14448989  0.81050933  0.53085421     1.01600
Fe1321     Fe  0.02932122  0.79648061  0.93750126     1.65800
Fe1322     Fe  0.12197991  0.82096767  0.94302256     1.73200
Fe1323     Fe  0.09098177  0.73722145  0.96714102     1.54400
O1324       O  0.04032530  0.73663188  0.98566799    -0.83000
O1325       O  0.16013579  0.78074596  0.92598614    -0.81400
O1326       O  0.01162822  0.79054209  0.97536166    -0.85600
O1327       O  0.01378463  0.73981868  0.92899321    -0.80400
O1328       O  0.11214122  0.76535025  0.50191658    -0.82200
O1329       O  0.10144070  0.83572857  0.90271157    -0.84900
C1330       C  0.03180226  0.70870347  0.93019536     0.95800
C1331       C  0.01467862  0.76076285  0.48883864     1.03300
O1332       O  0.08139851  0.78425197  0.94821622    -1.13900
O1333       O  0.09029963  0.86018426  0.96470353    -0.76300
O1334       O  0.03408869  0.85295542  0.94724220    -0.79800
O1335       O  0.06733639  0.70824973  0.93451328    -0.80500
C1336       C  0.05489827  0.86354335  0.96682619     0.94700
O1337       O  0.04629369  0.80494613  0.89914935    -0.78500
O1338       O  0.14385231  0.81253275  0.98235004    -0.83700
C1339       C  0.16612485  0.74700256  0.93460872     0.97400
C1340       C  0.13249530  0.79491066  0.00365865     1.03300
O1341       O  0.14333140  0.73032658  0.95045252    -0.79300
C1342       C  0.07272598  0.82430576  0.88879977     1.01600
Fe1343     Fe  0.03988182  0.78591811  0.81024589     1.65800
Fe1344     Fe  0.06436831  0.87857805  0.80472395     1.73200
Fe1345     Fe  0.48062296  0.84757859  0.78060478     1.54400
O1346       O  0.48003353  0.79692225  0.76207846    -0.83000
O1347       O  0.02414578  0.91673454  0.82175875    -0.81400
O1348       O  0.03394202  0.76822280  0.77238610    -0.85600
O1349       O  0.48321956  0.77038109  0.81875448    -0.80400
O1350       O  0.00875187  0.86873906  0.74582895    -0.82200
O1351       O  0.07912761  0.85804056  0.84503554    -0.84900
C1352       C  0.45210416  0.78839852  0.81755089     0.95800
C1353       C  0.50416445  0.77127315  0.75890930     1.03300
O1354       O  0.02765327  0.83799560  0.79953001    -1.13900
O1355       O  0.10358698  0.84689832  0.78304464    -0.76300
O1356       O  0.09635640  0.79068607  0.80050362    -0.79800
O1357       O  0.45165079  0.82393264  0.81323251    -0.80500
C1358       C  0.10694426  0.81149697  0.78092022     0.94700
O1359       O  0.04834824  0.80289175  0.84859762    -0.78500
O1360       O  0.05593537  0.90044885  0.76539552    -0.83700
C1361       C  0.49040280  0.92272319  0.81313551     0.97400
C1362       C  0.03831266  0.88909307  0.74408680     1.03300
O1363       O  0.47372717  0.89992853  0.79729247    -0.79300
C1364       C  0.06770629  0.82932518  0.85894725     1.01600
Fe1365     Fe  0.46173466  0.72926316  0.68770778     1.65800
Fe1366     Fe  0.43672536  0.63668626  0.69310236     1.73200
Fe1367     Fe  0.02030446  0.66729834  0.71779676     1.54400
O1368       O  0.04988651  0.69081467  0.68540526    -0.83000
O1369       O  0.44459359  0.61471669  0.73243888    -0.81400
O1370       O  0.01854375  0.74443709  0.67941633    -0.85600
O1371       O  0.46745476  0.74709064  0.72556502    -0.80400
O1372       O  0.02715393  0.61492116  0.70114777    -0.82200
O1373       O  0.39733632  0.66845933  0.71454659    -0.84900
C1374       C  0.99700102  0.74380350  0.73927298     0.95800
C1375       C  0.04957527  0.72630409  0.68087143     1.03300
O1376       O  0.47357207  0.67712664  0.69853876    -1.13900
O1377       O  0.42250489  0.65725806  0.65272303    -0.76300
O1378       O  0.45348100  0.71229558  0.64924318    -0.79800
O1379       O  0.02093472  0.71792596  0.73633101    -0.80500
C1380       C  0.43415339  0.68588342  0.63882190     0.94700
O1381       O  0.40521130  0.72473466  0.69735827    -0.78500
O1382       O  0.47699186  0.59839472  0.67630620    -0.83700
C1383       C  0.46203992  0.62587927  0.75386886     0.97400
C1384       C  0.01058144  0.59222738  0.68517097     1.03300
O1385       O  0.49163919  0.64620820  0.75235620    -0.79300
C1386       C  0.39449529  0.70388203  0.71689311     1.01600
Fe1387     Fe  0.47266564  0.71833710  0.56004113     1.65800
Fe1388     Fe  0.38008866  0.69332642  0.55464369     1.73200
Fe1389     Fe  0.41070095  0.77690451  0.52994854     1.54400
O1390       O  0.43421542  0.80648826  0.56234007    -0.83000
O1391       O  0.35812009  0.70119324  0.51530655    -0.81400
O1392       O  0.48783756  0.77514656  0.56833387    -0.85600
O1393       O  0.49049806  0.72405780  0.52218565    -0.80400
O1394       O  0.35832259  0.78375430  0.54659633    -0.82200
O1395       O  0.41186315  0.65393761  0.53320048    -0.84900
C1396       C  0.48720822  0.75360330  0.00847520     0.95800
C1397       C  0.46970437  0.80617780  0.56687589     1.03300
O1398       O  0.42052932  0.73017331  0.54920795    -1.13900
O1399       O  0.40065803  0.67910643  0.59502379    -0.76300
O1400       O  0.45569515  0.71008249  0.59850501    -0.79800
O1401       O  0.46132971  0.77753422  0.01141541    -0.80500
C1402       C  0.42928260  0.69075491  0.60892564     0.94700
O1403       O  0.46813907  0.66181386  0.55038786    -0.78500
O1404       O  0.34179580  0.73359276  0.57143841    -0.83700
C1405       C  0.36928221  0.71863921  0.49387631     0.97400
C1406       C  0.33562829  0.76718200  0.56257295     1.03300
O1407       O  0.38961216  0.74823790  0.49538882    -0.79300
C1408       C  0.44728588  0.65109754  0.53085320     1.01600
Fe1409     Fe  0.96131905  0.03592611  0.43749967     1.65800
Fe1410     Fe  0.93682637  0.12858412  0.44302053     1.73200
Fe1411     Fe  0.52057489  0.09758809  0.46713949     1.54400
O1412       O  0.52116810  0.04693229  0.98566678    -0.83000
O1413       O  0.97704587  0.16674173  0.42598481    -0.81400
O1414       O  0.96725917  0.01823459  0.47536022    -0.85600
O1415       O  0.51798185  0.02039080  0.42899153    -0.80400
O1416       O  0.99244527  0.11874804  0.00191503    -0.82200
O1417       O  0.92206654  0.10804371  0.40270888    -0.84900
C1418       C  0.54909672  0.03840807  0.43019435     0.95800
C1419       C  0.49703709  0.02128522  0.98883731     1.03300
O1420       O  0.97354487  0.08800379  0.44821420    -1.13900
O1421       O  0.89761135  0.09690335  0.46470160    -0.76300
O1422       O  0.90484432  0.04069210  0.44724142    -0.79800
O1423       O  0.54954959  0.07394224  0.43451267    -0.80500
C1424       C  0.89425573  0.06150191  0.46682534     0.94700
O1425       O  0.95285131  0.05289693  0.39914734    -0.78500
O1426       O  0.94525965  0.15045654  0.48234865    -0.83700
C1427       C  0.51078866  0.17273127  0.43460807     0.97400
C1428       C  0.96288358  0.13910144  0.50365725     1.03300
O1429       O  0.52746587  0.14993739  0.45045110    -0.79300
C1430       C  0.93348945  0.07932801  0.38879739     1.01600
Fe1431     Fe  0.97187079  0.04647333  0.31024359     1.65800
Fe1432     Fe  0.87921299  0.07096599  0.30472137     1.73200
Fe1433     Fe  0.91020975  0.48721803  0.28060214     1.54400
O1434       O  0.96086638  0.48662496  0.26207573    -0.83000
O1435       O  0.84105588  0.03074621  0.32175745    -0.81400
O1436       O  0.98956479  0.04053291  0.27238367    -0.85600
O1437       O  0.98740535  0.48981041  0.31875207    -0.80400
O1438       O  0.88905146  0.01534846  0.24582664    -0.82200
O1439       O  0.89975243  0.08572773  0.34503268    -0.84900
C1440       C  0.96938803  0.45869567  0.31754811     0.95800
C1441       C  0.98651376  0.01075489  0.25890591     1.03300
O1442       O  0.91979357  0.03424760  0.29952809    -1.13900
O1443       O  0.91089416  0.11018046  0.28304000    -0.76300
O1444       O  0.96710480  0.10294797  0.30050129    -0.79800
O1445       O  0.93385406  0.45824299  0.31322910    -0.80500
C1446       C  0.94629570  0.11353602  0.28091683     0.94700
O1447       O  0.95489800  0.05494146  0.34859562    -0.78500
O1448       O  0.85734022  0.06253161  0.26539362    -0.83700
C1449       C  0.83506641  0.49700349  0.31313379     0.97400
C1450       C  0.86869683  0.04490920  0.24408477     1.03300
O1451       O  0.85785998  0.48032695  0.29729003    -0.79300
C1452       C  0.92846721  0.07430455  0.35894483     1.01600
Fe1453     Fe  0.53946449  0.47927016  0.06003905     1.65800
Fe1454     Fe  0.56446968  0.38669090  0.05464047     1.73200
Fe1455     Fe  0.98089297  0.41730960  0.02994774     1.54400
O1456       O  0.95131497  0.44082288  0.06234200    -0.83000
O1457       O  0.55660006  0.36472384  0.01530372    -0.81400
O1458       O  0.98265522  0.49444529  0.06833231    -0.85600
O1459       O  0.53374384  0.49710327  0.02218360    -0.80400
O1460       O  0.97404005  0.36493107  0.04659413    -0.82200
O1461       O  0.60385928  0.41846382  0.03319667    -0.84900
C1462       C  0.00419813  0.49381591  0.50847447     0.95800
C1463       C  0.95162445  0.47631185  0.06687641     1.03300
O1464       O  0.52762553  0.42713454  0.04920558    -1.13900
O1465       O  0.57869149  0.40725803  0.09502029    -0.76300
O1466       O  0.54771910  0.46229827  0.09850239    -0.79800
O1467       O  0.98026490  0.46793924  0.51141591    -0.80500
C1468       C  0.56704438  0.43588308  0.10892256     0.94700
O1469       O  0.59598768  0.47473998  0.05038574    -0.78500
O1470       O  0.52420103  0.34840108  0.07143590    -0.83700
C1471       C  0.53915452  0.37588843  0.99387392     0.97400
C1472       C  0.99061108  0.34223592  0.06257105     1.03300
O1473       O  0.50955661  0.39622032  0.99538682    -0.79300
C1474       C  0.60670287  0.45388659  0.03085068     1.01600
Fe1475     Fe  0.52852746  0.46832881  0.18770367     1.65800
Fe1476     Fe  0.62110653  0.44332241  0.19310076     1.73200
Fe1477     Fe  0.59048919  0.02689915  0.21779450     1.54400
O1478       O  0.56697553  0.05647788  0.18540075    -0.83000
O1479       O  0.64307389  0.45119061  0.23243770    -0.81400
O1480       O  0.51335292  0.02513778  0.17941076    -0.85600
O1481       O  0.51069573  0.97404883  0.22555938    -0.80400
O1482       O  0.64286749  0.03375166  0.20114774    -0.82200
O1483       O  0.58933340  0.40393268  0.21454444    -0.84900
C1484       C  0.51398358  0.00359496  0.23926883     0.95800
C1485       C  0.53148659  0.05616838  0.18086617     1.03300
O1486       O  0.58066346  0.48016702  0.19853641    -1.13900
O1487       O  0.60053854  0.42910266  0.15272059    -0.76300
O1488       O  0.54549812  0.46007503  0.14924010    -0.79800
O1489       O  0.53985982  0.02752759  0.23632709    -0.80500
C1490       C  0.57191310  0.44075055  0.13881903     0.94700
O1491       O  0.53305713  0.41180551  0.19735630    -0.78500
O1492       O  0.65939752  0.48359056  0.17630600    -0.83700
C1493       C  0.63191009  0.46863656  0.25386765     0.97400
C1494       C  0.66556285  0.01718045  0.18517110     1.03300
O1495       O  0.61157871  0.99823491  0.25235491    -0.79300
C1496       C  0.55391068  0.40108980  0.21689102     1.01600
Fe1497     Fe  0.72187496  0.46791413  0.43749708     1.65800
Fe1498     Fe  0.62921507  0.44342794  0.44301821     1.73200
Fe1499     Fe  0.66021400  0.02717368  0.46713693     1.54400
O1500       O  0.71087038  0.02776430  0.98566341    -0.83000
O1501       O  0.59105854  0.48365032  0.42598295    -0.81400
O1502       O  0.73956945  0.47385526  0.47535692    -0.85600
O1503       O  0.73741167  0.02457615  0.42898769    -0.80400
O1504       O  0.63905366  0.99904547  0.00191296    -0.82200
O1505       O  0.64975353  0.42866765  0.40270684    -0.84900
C1506       C  0.71939382  0.05569130  0.43019081     0.95800
C1507       C  0.73651914  0.00363282  0.98883337     1.03300
O1508       O  0.66979732  0.48014290  0.44821232    -1.13900
O1509       O  0.66089440  0.40420982  0.46469848    -0.76300
O1510       O  0.71710745  0.41143976  0.44724050    -0.79800
O1511       O  0.68385957  0.05614428  0.43450848    -0.80500
C1512       C  0.69629564  0.40085199  0.46682349     0.94700
O1513       O  0.70490263  0.45944644  0.39914530    -0.78500
O1514       O  0.60734366  0.45186211  0.48234627    -0.83700
C1515       C  0.58506944  0.01739325  0.43460648     0.97400
C1516       C  0.61869944  0.46948486  0.50365500     1.03300
O1517       O  0.60786404  0.03406898  0.45044946    -0.79300
C1518       C  0.67846947  0.44008836  0.38879543     1.01600
Fe1519     Fe  0.71131747  0.47847034  0.31024124     1.65800
Fe1520     Fe  0.68682950  0.38581185  0.30472098     1.73200
Fe1521     Fe  0.77057610  0.41680865  0.28060198     1.54400
O1522       O  0.77116678  0.46746463  0.26207433    -0.83000
O1523       O  0.72705044  0.34765643  0.32175851    -0.81400
O1524       O  0.71725679  0.49616207  0.27238064    -0.85600
O1525       O  0.76797926  0.49400665  0.31874954    -0.80400
O1526       O  0.74244671  0.39564896  0.24582687    -0.82200
O1527       O  0.67206719  0.40635296  0.34503133    -0.84900
C1528       C  0.79909459  0.47598929  0.31754695     0.95800
C1529       C  0.74703608  0.49311157  0.25890377     1.03300
O1530       O  0.72354588  0.42639273  0.29952709    -1.13900
O1531       O  0.64761437  0.41749173  0.28303838    -0.76300
O1532       O  0.65484288  0.47370295  0.30049948    -0.79800
O1533       O  0.79954866  0.44045503  0.31322905    -0.80500
C1534       C  0.64425535  0.45289309  0.28091544     0.94700
O1535       O  0.70285113  0.46149911  0.34859345    -0.78500
O1536       O  0.69526535  0.36393713  0.26539430    -0.83700
C1537       C  0.76079355  0.34166656  0.31313555     0.97400
C1538       C  0.71288632  0.37529468  0.24408538     1.03300
O1539       O  0.77746971  0.36445930  0.29729126    -0.79300
C1540       C  0.68349020  0.43506774  0.35894302     1.01600
Fe1541     Fe  0.77852876  0.04606124  0.06003648     1.65800
Fe1542     Fe  0.87110530  0.07107295  0.05464026     1.73200
Fe1543     Fe  0.84049403  0.48749321  0.02994570     1.54400
O1544       O  0.81697777  0.45790964  0.06233665    -0.83000
O1545       O  0.89307329  0.06320645  0.01530316    -0.81400
O1546       O  0.76335566  0.48925198  0.06832784    -0.85600
O1547       O  0.76069885  0.04034108  0.02217982    -0.80400
O1548       O  0.89287123  0.48064371  0.04659495    -0.82200
O1549       O  0.83933074  0.11046218  0.03319770    -0.84900
C1550       C  0.76398765  0.01079660  0.50847045     0.95800
C1551       C  0.78148857  0.45822054  0.06687144     1.03300
O1552       O  0.83066532  0.03422536  0.04920407    -1.13900
O1553       O  0.85053523  0.08529191  0.09502011    -0.76300
O1554       O  0.79549823  0.05431501  0.09850071    -0.79800
O1555       O  0.78986662  0.48686356  0.51141132    -0.80500
C1556       C  0.82191073  0.07364257  0.10892166     0.94700
O1557       O  0.78305590  0.10258455  0.05038621    -0.78500
O1558       O  0.90939830  0.03080695  0.07143514    -0.83700
C1559       C  0.88191215  0.04575865  0.99387345     0.97400
C1560       C  0.91556547  0.49721695  0.06257109     1.03300
O1561       O  0.86158454  0.01615853  0.99538645    -0.79300
C1562       C  0.80390791  0.11330106  0.03085117     1.01600
Fe1563     Fe  0.78946163  0.03512687  0.18770212     1.65800
Fe1564     Fe  0.81447039  0.12770453  0.19310067     1.73200
Fe1565     Fe  0.73089280  0.09708996  0.21779504     1.54400
O1566       O  0.70131064  0.07357586  0.18540269    -0.83000
O1567       O  0.80660354  0.14967116  0.23243858    -0.81400
O1568       O  0.73265245  0.01995372  0.17940971    -0.85600
O1569       O  0.78374208  0.01729374  0.22555762    -0.80400
O1570       O  0.72404148  0.14946846  0.20114788    -0.82200
O1571       O  0.85386050  0.09593032  0.21454252    -0.84900
C1572       C  0.75419602  0.02058249  0.23926758     0.95800
C1573       C  0.70162121  0.03808686  0.18086686     1.03300
O1574       O  0.77762456  0.08726292  0.19853603    -1.13900
O1575       O  0.82868937  0.10713656  0.15272007    -0.76300
O1576       O  0.79771487  0.05209841  0.14923860    -0.79800
O1577       O  0.73026453  0.04646050  0.23632729    -0.80500
C1578       C  0.81704096  0.07851203  0.13881804     0.94700
O1579       O  0.84598490  0.03965475  0.19735423    -0.78500
O1580       O  0.77420325  0.16599682  0.17630665    -0.83700
C1581       C  0.78915668  0.13850883  0.25386847     0.97400
C1582       C  0.74061356  0.17216324  0.18517149     1.03300
O1583       O  0.75955799  0.11817898  0.25235531    -0.79300
C1584       C  0.85670111  0.06050755  0.21688912     1.01600
Fe1585     Fe  0.78987389  0.22846976  0.43750056     1.65800
Fe1586     Fe  0.81436754  0.13581231  0.44302098     1.73200
Fe1587     Fe  0.73061748  0.16680647  0.46713817     1.54400
O1588       O  0.73002294  0.21746204  0.98566693    -0.83000
O1589       O  0.77415019  0.09765430  0.42598274    -0.81400
O1590       O  0.78393178  0.24616022  0.47536121    -0.85600
O1591       O  0.73321157  0.24400484  0.42899140    -0.80400
O1592       O  0.75874679  0.14564705  0.00191337    -0.82200
O1593       O  0.82912942  0.15635373  0.40271077    -0.84900
C1594       C  0.70209677  0.22598761  0.43019420     0.95800
C1595       C  0.75415376  0.24310920  0.98883817     1.03300
O1596       O  0.77764801  0.17639180  0.44821401    -1.13900
O1597       O  0.85357919  0.16749411  0.46470523    -0.76300
O1598       O  0.84634860  0.22370515  0.44724414    -0.79800
O1599       O  0.70164392  0.19045314  0.43451121    -0.80500
C1600       C  0.85693683  0.20289551  0.46682834     0.94700
O1601       O  0.79834298  0.21149940  0.39914821    -0.78500
O1602       O  0.80593162  0.11393738  0.48234722    -0.83700
C1603       C  0.74040694  0.09166390  0.43460492     0.97400
C1604       C  0.78830858  0.12529407  0.50365562     1.03300
O1605       O  0.72372856  0.11445720  0.45044805    -0.79300
C1606       C  0.81770505  0.18506801  0.38879879     1.01600
Fe1607     Fe  0.77932440  0.21791728  0.31024383     1.65800
Fe1608     Fe  0.87198244  0.19342360  0.30472401     1.73200
Fe1609     Fe  0.84098817  0.27717265  0.28060558     1.54400
O1610       O  0.79033268  0.27776736  0.26207710    -0.83000
O1611       O  0.91014109  0.23364195  0.32176083    -0.81400
O1612       O  0.76163351  0.22385918  0.27238321    -0.85600
O1613       O  0.76379000  0.27457984  0.31875283    -0.80400
O1614       O  0.86214786  0.24904278  0.24583053    -0.82200
O1615       O  0.85144134  0.17866412  0.34503486    -0.84900
C1616       C  0.78180779  0.30569432  0.31754997     0.95800
C1617       C  0.76468483  0.25363606  0.25890609     1.03300
O1618       O  0.83140261  0.23014253  0.29953010    -1.13900
O1619       O  0.84030078  0.15421021  0.28304117    -0.76300
O1620       O  0.78408884  0.16144252  0.30050050    -0.79800
O1621       O  0.81734216  0.30614655  0.31323266    -0.80500
C1622       C  0.80489937  0.15085381  0.28091690     0.94700
O1623       O  0.79629458  0.20944888  0.34859617    -0.78500
O1624       O  0.89385642  0.20185748  0.26539712    -0.83700
C1625       C  0.91613143  0.26738479  0.31313781     0.97400
C1626       C  0.88250064  0.21948078  0.24408857     1.03300
O1627       O  0.89333761  0.28406239  0.29729481    -0.79300
C1628       C  0.82272633  0.19008829  0.35894628     1.01600
Fe1629     Fe  0.72266793  0.29606208  0.18770256     1.65800
Fe1630     Fe  0.63008925  0.32107033  0.19310379     1.73200
Fe1631     Fe  0.66070801  0.23749292  0.21779695     1.54400
O1632       O  0.68421961  0.20791317  0.18540284    -0.83000
O1633       O  0.60812577  0.31320287  0.23244237    -0.81400
O1634       O  0.73784160  0.23925272  0.17940945    -0.85600
O1635       O  0.74050530  0.29034171  0.22555730    -0.80400
O1636       O  0.60832921  0.23063969  0.20115170    -0.82200
O1637       O  0.66186362  0.36046109  0.21454433    -0.84900
C1638       C  0.73721684  0.26079827  0.23926790     0.95800
C1639       C  0.71970816  0.20822222  0.18086691     1.03300
O1640       O  0.67053265  0.28422526  0.19853839    -1.13900
O1641       O  0.65065440  0.33529101  0.15272270    -0.76300
O1642       O  0.70569360  0.30431700  0.14924006    -0.79800
O1643       O  0.71133827  0.23686556  0.23632799    -0.80500
C1644       C  0.67927958  0.32364423  0.13882028     0.94700
O1645       O  0.71813860  0.35258489  0.19735457    -0.78500
O1646       O  0.59179763  0.28080128  0.17631104    -0.83700
C1647       C  0.61928891  0.29575503  0.25387172     0.97400
C1648       C  0.58563324  0.24721104  0.18517565     1.03300
O1649       O  0.63961933  0.26615624  0.25235801    -0.79300
C1650       C  0.69728657  0.36330067  0.21689011     1.01600
Fe1651     Fe  0.71172882  0.28512672  0.06004070     1.65800
Fe1652     Fe  0.68672177  0.37770605  0.05464062     1.73200
Fe1653     Fe  0.77029840  0.34708667  0.02994677     1.54400
O1654       O  0.79987760  0.32357522  0.06234112    -0.83000
O1655       O  0.69458847  0.39966904  0.01530157    -0.81400
O1656       O  0.76853836  0.26995278  0.06833348    -0.85600
O1657       O  0.71744806  0.26729034  0.02218586    -0.80400
O1658       O  0.77715256  0.39946581  0.04659165    -0.82200
O1659       O  0.64732978  0.34593220  0.03320075    -0.84900
C1660       C  0.74699283  0.27057838  0.50847566     0.95800
C1661       C  0.79956873  0.28808663  0.06687697     1.03300
O1662       O  0.72356608  0.33726225  0.04920541    -1.13900
O1663       O  0.67250272  0.35714062  0.09502212    -0.76300
O1664       O  0.70347492  0.30210017  0.09850339    -0.79800
O1665       O  0.77092529  0.29645596  0.51141603    -0.80500
C1666       C  0.68414916  0.32851464  0.10892392     0.94700
O1667       O  0.65520586  0.28965648  0.05038918    -0.78500
O1668       O  0.72699142  0.41599794  0.07143260    -0.83700
C1669       C  0.71203668  0.38850644  0.99387209     0.97400
C1670       C  0.76058151  0.42216226  0.06256761     1.03300
O1671       O  0.74163526  0.36817562  0.99538572    -0.79300
C1672       C  0.64448986  0.31050934  0.03085422     1.01600
Fe1673     Fe  0.52932120  0.29648062  0.43750128     1.65800
Fe1674     Fe  0.62197989  0.32096768  0.44302255     1.73200
Fe1675     Fe  0.59098179  0.23722147  0.46714103     1.54400
O1676       O  0.54032532  0.23663183  0.48566800    -0.83000
O1677       O  0.66013578  0.28074597  0.42598615    -0.81400
O1678       O  0.51162837  0.29054211  0.47536172    -0.85600
O1679       O  0.51378460  0.23981869  0.42899324    -0.80400
O1680       O  0.61214118  0.26535026  0.00191660    -0.82200
O1681       O  0.60144068  0.33572857  0.40271158    -0.84900
C1682       C  0.53180222  0.20870349  0.43019539     0.95800
C1683       C  0.51467867  0.26076295  0.98883866     1.03300
O1684       O  0.58139852  0.28425195  0.44821614    -1.13900
O1685       O  0.59029960  0.36018432  0.46470347    -0.76300
O1686       O  0.53408863  0.35295542  0.44724222    -0.79800
O1687       O  0.56733637  0.20824973  0.43451331    -0.80500
C1688       C  0.55489824  0.36354334  0.46682620     0.94700
O1689       O  0.54629364  0.30494615  0.39914936    -0.78500
O1690       O  0.64385234  0.31253281  0.48235004    -0.83700
C1691       C  0.66612487  0.24700257  0.43460875     0.97400
C1692       C  0.63249540  0.29491066  0.50365863     1.03300
O1693       O  0.64333146  0.23032659  0.45045257    -0.79300
C1694       C  0.57272595  0.32430577  0.38879979     1.01600
Fe1695     Fe  0.53988179  0.28591810  0.31024591     1.65800
Fe1696     Fe  0.56436843  0.37857807  0.30472398     1.73200
Fe1697     Fe  0.98062294  0.34757861  0.28060480     1.54400
O1698       O  0.98003349  0.29692227  0.26207848    -0.83000
O1699       O  0.52414586  0.41673456  0.32175879    -0.81400
O1700       O  0.53394197  0.26822281  0.27238612    -0.85600
O1701       O  0.98321952  0.27038110  0.31875449    -0.80400
O1702       O  0.50875190  0.36873906  0.24582898    -0.82200
O1703       O  0.57912764  0.35804056  0.34503557    -0.84900
C1704       C  0.95210413  0.28839852  0.31755085     0.95800
C1705       C  0.00416440  0.27127316  0.25890932     1.03300
O1706       O  0.52765337  0.33799562  0.29953005    -1.13900
O1707       O  0.60358701  0.34689826  0.28304467    -0.76300
O1708       O  0.59635634  0.29068590  0.30050353    -0.79800
O1709       O  0.95165077  0.32393265  0.31323251    -0.80500
C1710       C  0.60694425  0.31149690  0.28092020     0.94700
O1711       O  0.54834823  0.30289176  0.34859763    -0.78500
O1712       O  0.55593539  0.40044886  0.26539554    -0.83700
C1713       C  0.99040279  0.42272317  0.31313552     0.97400
C1714       C  0.53831267  0.38909309  0.24408682     1.03300
O1715       O  0.97372715  0.39992854  0.29729249    -0.79300
C1716       C  0.56770627  0.32932519  0.35894727     1.01600
Fe1717     Fe  0.96173475  0.22926316  0.18770780     1.65800
Fe1718     Fe  0.93672538  0.13668625  0.19310236     1.73200
Fe1719     Fe  0.52030446  0.16729836  0.21779677     1.54400
O1720       O  0.54988650  0.19081468  0.18540525    -0.83000
O1721       O  0.94459366  0.11471659  0.23243886    -0.81400
O1722       O  0.51854378  0.24443710  0.17941633    -0.85600
O1723       O  0.96745477  0.24709065  0.22556503    -0.80400
O1724       O  0.52715407  0.11492117  0.20114779    -0.82200
O1725       O  0.89733642  0.16845935  0.21454654    -0.84900
C1726       C  0.49700098  0.24380351  0.23927301     0.95800
C1727       C  0.54957528  0.22630410  0.18087139     1.03300
O1728       O  0.97357208  0.17712663  0.19853877    -1.13900
O1729       O  0.92250487  0.15725808  0.15272304    -0.76300
O1730       O  0.95348102  0.21229558  0.14924318    -0.79800
O1731       O  0.52093468  0.21792597  0.23633103    -0.80500
C1732       C  0.93415338  0.18588343  0.13882191     0.94700
O1733       O  0.90521138  0.22473473  0.19735827    -0.78500
O1734       O  0.97699188  0.09839473  0.17630624    -0.83700
C1735       C  0.96203995  0.12587919  0.25386884     0.97400
C1736       C  0.51058154  0.09222739  0.18517099     1.03300
O1737       O  0.99163918  0.14620819  0.25235617    -0.79300
C1738       C  0.89449534  0.20388204  0.21689308     1.01600
Fe1739     Fe  0.97266562  0.21833711  0.06004112     1.65800
Fe1740     Fe  0.88008863  0.19332643  0.05464370     1.73200
Fe1741     Fe  0.91070093  0.27690453  0.02994856     1.54400
O1742       O  0.93421541  0.30648828  0.06234009    -0.83000
O1743       O  0.85812009  0.20119329  0.01530655    -0.81400
O1744       O  0.98783754  0.27514657  0.06833388    -0.85600
O1745       O  0.99049801  0.22405777  0.02218558    -0.80400
O1746       O  0.85832259  0.28375430  0.04659635    -0.82200
O1747       O  0.91186312  0.15393762  0.03320049    -0.84900
C1748       C  0.98720825  0.25360325  0.50847520     0.95800
C1749       C  0.96970437  0.30617780  0.06687592     1.03300
O1750       O  0.92052929  0.23017332  0.04920797    -1.13900
O1751       O  0.90065800  0.17910644  0.09502379    -0.76300
O1752       O  0.95569513  0.21008251  0.09850500    -0.79800
O1753       O  0.96132976  0.27753419  0.51141539    -0.80500
C1754       C  0.92928258  0.19075492  0.10892563     0.94700
O1755       O  0.96813903  0.16181387  0.05038788    -0.78500
O1756       O  0.84179578  0.23359276  0.07143843    -0.83700
C1757       C  0.86928217  0.21863931  0.99387630     0.97400
C1758       C  0.83562827  0.26718199  0.06257295     1.03300
O1759       O  0.88961208  0.24823801  0.99538882    -0.79300
C1760       C  0.94728587  0.15109755  0.03085322     1.01600
Fe1761     Fe  0.96131915  0.03592608  0.93749968     1.65800
Fe1762     Fe  0.93682644  0.12858406  0.94302052     1.73200
Fe1763     Fe  0.52057500  0.09758818  0.96713957     1.54400
O1764       O  0.52116796  0.04693225  0.48566677    -0.83000
O1765       O  0.97704593  0.16674165  0.92598478    -0.81400
O1766       O  0.96725925  0.01823474  0.97536021    -0.85600
O1767       O  0.51798194  0.02039071  0.92899150    -0.80400
O1768       O  0.99244512  0.11874794  0.50191496    -0.82200
O1769       O  0.92206648  0.10804367  0.90270890    -0.84900
C1770       C  0.54909678  0.03840805  0.93019435     0.95800
C1771       C  0.49703703  0.02128512  0.48883730     1.03300
O1772       O  0.97354500  0.08800377  0.94821421    -1.13900
O1773       O  0.89761127  0.09690339  0.96470155    -0.76300
O1774       O  0.90484440  0.04069210  0.94724145    -0.79800
O1775       O  0.54954957  0.07394223  0.93451269    -0.80500
C1776       C  0.89425571  0.06150195  0.96682532     0.94700
O1777       O  0.95285123  0.05289687  0.89914738    -0.78500
O1778       O  0.94525976  0.15045649  0.98234864    -0.83700
C1779       C  0.51078871  0.17273123  0.93460806     0.97400
C1780       C  0.96288367  0.13910148  0.00365727     1.03300
O1781       O  0.52746593  0.14993740  0.95045111    -0.79300
C1782       C  0.93348940  0.07932794  0.88879742     1.01600
Fe1783     Fe  0.97187071  0.04647330  0.81024359     1.65800
Fe1784     Fe  0.87921295  0.07096595  0.80472135     1.73200
Fe1785     Fe  0.91020977  0.48721797  0.78060213     1.54400
O1786       O  0.96086642  0.48662490  0.76207573    -0.83000
O1787       O  0.84105589  0.03074614  0.82175744    -0.81400
O1788       O  0.98956464  0.04053301  0.77238360    -0.85600
O1789       O  0.98740531  0.48981045  0.81875217    -0.80400
O1790       O  0.88905157  0.01534841  0.74582668    -0.82200
O1791       O  0.89975240  0.08572778  0.84503268    -0.84900
C1792       C  0.96938797  0.45869569  0.81754812     0.95800
C1793       C  0.98651371  0.01075495  0.75890587     1.03300
O1794       O  0.91979353  0.03424756  0.79952809    -1.13900
O1795       O  0.91089419  0.11018040  0.78303999    -0.76300
O1796       O  0.96710488  0.10294796  0.80050124    -0.79800
O1797       O  0.93385403  0.45824301  0.81322908    -0.80500
C1798       C  0.94629572  0.11353611  0.78091686     0.94700
O1799       O  0.95489794  0.05494145  0.84859563    -0.78500
O1800       O  0.85734027  0.06253155  0.76539364    -0.83700
C1801       C  0.83506641  0.49700344  0.81313376     0.97400
C1802       C  0.86869689  0.04490911  0.74408481     1.03300
O1803       O  0.85785994  0.48032688  0.79728998    -0.79300
C1804       C  0.92846713  0.07430453  0.85894485     1.01600
Fe1805     Fe  0.53946440  0.47927012  0.56003906     1.65800
Fe1806     Fe  0.56446977  0.38669098  0.55464047     1.73200
Fe1807     Fe  0.98089302  0.41730956  0.52994773     1.54400
O1808       O  0.95131490  0.44082282  0.56234196    -0.83000
O1809       O  0.55660013  0.36472388  0.51530375    -0.81400
O1810       O  0.98265516  0.49444521  0.56833230    -0.85600
O1811       O  0.53374372  0.49710325  0.52218369    -0.80400
O1812       O  0.97404008  0.36493100  0.54659408    -0.82200
O1813       O  0.60385938  0.41846389  0.53319669    -0.84900
C1814       C  0.00419812  0.49381598  0.00847448     0.95800
C1815       C  0.95162439  0.47631177  0.56687643     1.03300
O1816       O  0.52762557  0.42713455  0.54920555    -1.13900
O1817       O  0.57869156  0.40725807  0.59502030    -0.76300
O1818       O  0.54771913  0.46229826  0.59850240    -0.79800
O1819       O  0.98026497  0.46793931  0.01141593    -0.80500
C1820       C  0.56704439  0.43588308  0.60892258     0.94700
O1821       O  0.59598753  0.47474006  0.55038570    -0.78500
O1822       O  0.52420107  0.34840110  0.57143589    -0.83700
C1823       C  0.53915457  0.37588845  0.49387395     0.97400
C1824       C  0.99061107  0.34223590  0.56257102     1.03300
O1825       O  0.50955666  0.39622031  0.49538685    -0.79300
C1826       C  0.60670277  0.45388665  0.53085064     1.01600
Fe1827     Fe  0.52852756  0.46832874  0.68770367     1.65800
Fe1828     Fe  0.62110661  0.44332235  0.69310083     1.73200
Fe1829     Fe  0.59048922  0.02689911  0.71779447     1.54400
O1830       O  0.56697550  0.05647785  0.68540073    -0.83000
O1831       O  0.64307386  0.45119057  0.73243776    -0.81400
O1832       O  0.51335280  0.02513787  0.67941087    -0.85600
O1833       O  0.51069562  0.97404884  0.72555937    -0.80400
O1834       O  0.64286750  0.03375178  0.70114769    -0.82200
O1835       O  0.58933349  0.40393258  0.71454446    -0.84900
C1836       C  0.51398355  0.00359497  0.73926882     0.95800
C1837       C  0.53148653  0.05616840  0.68086617     1.03300
O1838       O  0.58066351  0.48016695  0.69853641    -1.13900
O1839       O  0.60053859  0.42910263  0.65272061    -0.76300
O1840       O  0.54549817  0.46007501  0.64924010    -0.79800
O1841       O  0.53985983  0.02752754  0.73632706    -0.80500
C1842       C  0.57191316  0.44075048  0.63881905     0.94700
O1843       O  0.53305726  0.41180544  0.69735625    -0.78500
O1844       O  0.65939747  0.48359058  0.67630602    -0.83700
C1845       C  0.63191012  0.46863661  0.75386767     0.97400
C1846       C  0.66556291  0.01718049  0.68517107     1.03300
O1847       O  0.61157880  0.99823487  0.75235490    -0.79300
C1848       C  0.55391078  0.40108973  0.71689102     1.01600
Fe1849     Fe  0.72187502  0.46791408  0.93749707     1.65800
Fe1850     Fe  0.62921500  0.44342790  0.94301819     1.73200
Fe1851     Fe  0.66021410  0.02717362  0.96713692     1.54400
O1852       O  0.71087024  0.02776434  0.48566343    -0.83000
O1853       O  0.59105856  0.48365031  0.92598291    -0.81400
O1854       O  0.73956948  0.47385520  0.97535697    -0.85600
O1855       O  0.73741161  0.02457619  0.92898767    -0.80400
O1856       O  0.63905352  0.99904565  0.50191295    -0.82200
O1857       O  0.64975346  0.42866771  0.90270681    -0.84900
C1858       C  0.71939380  0.05569136  0.93019078     0.95800
C1859       C  0.73651907  0.00363292  0.48883335     1.03300
O1860       O  0.66979733  0.48014283  0.94821229    -1.13900
O1861       O  0.66089435  0.40420976  0.96469846    -0.76300
O1862       O  0.71710736  0.41143975  0.94724045    -0.79800
O1863       O  0.68385955  0.05614433  0.93450846    -0.80500
C1864       C  0.69629561  0.40085210  0.96682350     0.94700
O1865       O  0.70490263  0.45944643  0.89914528    -0.78500
O1866       O  0.60734375  0.45186207  0.98234629    -0.83700
C1867       C  0.58506954  0.01739324  0.93460646     0.97400
C1868       C  0.61869957  0.46948478  0.00365502     1.03300
O1869       O  0.60786414  0.03406894  0.95044945    -0.79300
C1870       C  0.67846944  0.44008834  0.88879542     1.01600
Fe1871     Fe  0.71131752  0.47847032  0.81024123     1.65800
Fe1872     Fe  0.68682938  0.38581196  0.80472096     1.73200
Fe1873     Fe  0.77057604  0.41680864  0.78060199     1.54400
O1874       O  0.77116693  0.46746469  0.76207434    -0.83000
O1875       O  0.72705032  0.34765653  0.82175849    -0.81400
O1876       O  0.71725686  0.49616199  0.77238061    -0.85600
O1877       O  0.76797930  0.49400670  0.81874950    -0.80400
O1878       O  0.74244668  0.39564904  0.74582686    -0.82200
O1879       O  0.67206723  0.40635291  0.84503133    -0.84900
C1880       C  0.79909459  0.47598928  0.81754697     0.95800
C1881       C  0.74703623  0.49311161  0.75890379     1.03300
O1882       O  0.72354580  0.42639275  0.79952706    -1.13900
O1883       O  0.64761420  0.41749186  0.78303847    -0.76300
O1884       O  0.65484287  0.47370300  0.80049957    -0.79800
O1885       O  0.79954859  0.44045500  0.81322914    -0.80500
C1886       C  0.64425538  0.45289322  0.78091550     0.94700
O1887       O  0.70285109  0.46149910  0.84859343    -0.78500
O1888       O  0.69526529  0.36393721  0.76539427    -0.83700
C1889       C  0.76079339  0.34166655  0.81313553     0.97400
C1890       C  0.71288635  0.37529468  0.74408536     1.03300
O1891       O  0.77746958  0.36445925  0.79729120    -0.79300
C1892       C  0.68349023  0.43506773  0.85894301     1.01600
Fe1893     Fe  0.77852870  0.04606123  0.56003657     1.65800
Fe1894     Fe  0.87110538  0.07107304  0.55464024     1.73200
Fe1895     Fe  0.84049411  0.48749316  0.52994568     1.54400
O1896       O  0.81697779  0.45790963  0.56233663    -0.83000
O1897       O  0.89307338  0.06320637  0.51530316    -0.81400
O1898       O  0.76335561  0.48925192  0.56832783    -0.85600
O1899       O  0.76069869  0.04034112  0.52217988    -0.80400
O1900       O  0.89287127  0.48064365  0.54659494    -0.82200
O1901       O  0.83933072  0.11046214  0.53319769    -0.84900
C1902       C  0.76398771  0.01079649  0.00847048     0.95800
C1903       C  0.78148856  0.45822052  0.56687141     1.03300
O1904       O  0.83066532  0.03422539  0.54920410    -1.13900
O1905       O  0.85053527  0.08529195  0.59502008    -0.76300
O1906       O  0.79549823  0.05431506  0.59850074    -0.79800
O1907       O  0.78986657  0.48686358  0.01141135    -0.80500
C1908       C  0.82191080  0.07364257  0.60892165     0.94700
O1909       O  0.78305594  0.10258454  0.55038634    -0.78500
O1910       O  0.90939840  0.03080699  0.57143513    -0.83700
C1911       C  0.88191216  0.04575860  0.49387347     0.97400
C1912       C  0.91556541  0.49721690  0.56257115     1.03300
O1913       O  0.86158441  0.01615855  0.49538645    -0.79300
C1914       C  0.80390787  0.11330096  0.53085122     1.01600
Fe1915     Fe  0.78946170  0.03512681  0.68770211     1.65800
Fe1916     Fe  0.81447034  0.12770449  0.69310066     1.73200
Fe1917     Fe  0.73089290  0.09708991  0.71779504     1.54400
O1918       O  0.70131078  0.07357586  0.68540267    -0.83000
O1919       O  0.80660347  0.14967122  0.73243856    -0.81400
O1920       O  0.73265254  0.01995370  0.67940968    -0.85600
O1921       O  0.78374215  0.01729367  0.72555763    -0.80400
O1922       O  0.72404153  0.14946851  0.70114798    -0.82200
O1923       O  0.85386048  0.09593027  0.71454260    -0.84900
C1924       C  0.75419615  0.02058251  0.73926766     0.95800
C1925       C  0.70162129  0.03808692  0.68086686     1.03300
O1926       O  0.77762461  0.08726284  0.69853603    -1.13900
O1927       O  0.82868945  0.10713650  0.65272007    -0.76300
O1928       O  0.79771499  0.05209835  0.64923858    -0.79800
O1929       O  0.73026467  0.04646051  0.73632738    -0.80500
C1930       C  0.81704108  0.07851197  0.63881804     0.94700
O1931       O  0.84598489  0.03965472  0.69735428    -0.78500
O1932       O  0.77420315  0.16599677  0.67630658    -0.83700
C1933       C  0.78915665  0.13850886  0.75386845     0.97400
C1934       C  0.74061349  0.17216326  0.68517153     1.03300
O1935       O  0.75955798  0.11817897  0.75235529    -0.79300
C1936       C  0.85670107  0.06050750  0.71688919     1.01600
Fe1937     Fe  0.78987392  0.22846989  0.93750062     1.65800
Fe1938     Fe  0.81436747  0.13581228  0.94302097     1.73200
Fe1939     Fe  0.73061756  0.16680657  0.96713813     1.54400
O1940       O  0.73002293  0.21746199  0.48566696    -0.83000
O1941       O  0.77415019  0.09765435  0.92598269    -0.81400
O1942       O  0.78393175  0.24616040  0.97536122    -0.85600
O1943       O  0.73321160  0.24400483  0.92899141    -0.80400
O1944       O  0.75874678  0.14564701  0.50191343    -0.82200
O1945       O  0.82912928  0.15635366  0.90271076    -0.84900
C1946       C  0.70209681  0.22598757  0.93019418     0.95800
C1947       C  0.75415374  0.24310916  0.48883815     1.03300
O1948       O  0.77764807  0.17639189  0.94821403    -1.13900
O1949       O  0.85357905  0.16749413  0.96470520    -0.76300
O1950       O  0.84634856  0.22370524  0.94724418    -0.79800
O1951       O  0.70164400  0.19045312  0.93451118    -0.80500
C1952       C  0.85693671  0.20289555  0.96682834     0.94700
O1953       O  0.79834291  0.21149938  0.89914823    -0.78500
O1954       O  0.80593167  0.11393738  0.98234722    -0.83700
C1955       C  0.74040696  0.09166396  0.93460492     0.97400
C1956       C  0.78830860  0.12529414  0.00365560     1.03300
O1957       O  0.72372866  0.11445726  0.95044806    -0.79300
C1958       C  0.81770494  0.18506798  0.88879879     1.01600
Fe1959     Fe  0.77932441  0.21791723  0.81024381     1.65800
Fe1960     Fe  0.87198235  0.19342355  0.80472399     1.73200
Fe1961     Fe  0.84098810  0.27717260  0.78060558     1.54400
O1962       O  0.79033269  0.27776731  0.76207704    -0.83000
O1963       O  0.91014098  0.23364195  0.82176082    -0.81400
O1964       O  0.76163339  0.22385923  0.77238325    -0.85600
O1965       O  0.76378992  0.27457978  0.81875282    -0.80400
O1966       O  0.86214787  0.24904279  0.74583059    -0.82200
O1967       O  0.85144134  0.17866409  0.84503486    -0.84900
C1968       C  0.78180768  0.30569429  0.81754995     0.95800
C1969       C  0.76468479  0.25363607  0.75890609     1.03300
O1970       O  0.83140256  0.23014248  0.79953007    -1.13900
O1971       O  0.84030078  0.15421011  0.78304113    -0.76300
O1972       O  0.78408890  0.16144247  0.80050049    -0.79800
O1973       O  0.81734203  0.30614651  0.81323264    -0.80500
C1974       C  0.80489936  0.15085375  0.78091687     0.94700
O1975       O  0.79629456  0.20944878  0.84859614    -0.78500
O1976       O  0.89385629  0.20185736  0.76539712    -0.83700
C1977       C  0.91613132  0.26738488  0.81313781     0.97400
C1978       C  0.88250055  0.21948074  0.74408859     1.03300
O1979       O  0.89333759  0.28406239  0.79729477    -0.79300
C1980       C  0.82272633  0.19008823  0.85894627     1.01600
Fe1981     Fe  0.72266801  0.29606219  0.68770254     1.65800
Fe1982     Fe  0.63008921  0.32107028  0.69310378     1.73200
Fe1983     Fe  0.66070807  0.23749300  0.71779703     1.54400
O1984       O  0.68421956  0.20791323  0.68540289    -0.83000
O1985       O  0.60812578  0.31320285  0.73244237    -0.81400
O1986       O  0.73784153  0.23925277  0.67940943    -0.85600
O1987       O  0.74050539  0.29034171  0.72555727    -0.80400
O1988       O  0.60832929  0.23063971  0.70115171    -0.82200
O1989       O  0.66186369  0.36046101  0.71454431    -0.84900
C1990       C  0.73721688  0.26079829  0.73926788     0.95800
C1991       C  0.71970811  0.20822228  0.68086692     1.03300
O1992       O  0.67053273  0.28422536  0.69853848    -1.13900
O1993       O  0.65065439  0.33529100  0.65272269    -0.76300
O1994       O  0.70569357  0.30431697  0.64924003    -0.79800
O1995       O  0.71133832  0.23686555  0.73632800    -0.80500
C1996       C  0.67927960  0.32364423  0.63882027     0.94700
O1997       O  0.71813873  0.35258504  0.69735453    -0.78500
O1998       O  0.59179752  0.28080123  0.67631104    -0.83700
C1999       C  0.61928877  0.29575496  0.75387173     0.97400
C2000       C  0.58563322  0.24721101  0.68517567     1.03300
O2001       O  0.63961924  0.26615620  0.75235807    -0.79300
C2002       C  0.69728665  0.36330068  0.71689008     1.01600
Fe2003     Fe  0.71172887  0.28512669  0.56004080     1.65800
Fe2004     Fe  0.68672173  0.37770606  0.55464061     1.73200
Fe2005     Fe  0.77029833  0.34708663  0.52994676     1.54400
O2006       O  0.79987750  0.32357516  0.56234113    -0.83000
O2007       O  0.69458834  0.39966890  0.51530153    -0.81400
O2008       O  0.76853836  0.26995269  0.56833355    -0.85600
O2009       O  0.71744816  0.26729040  0.52218596    -0.80400
O2010       O  0.77715248  0.39946579  0.54659163    -0.82200
O2011       O  0.64732982  0.34593218  0.53320073    -0.84900
C2012       C  0.74699277  0.27057834  0.00847566     0.95800
C2013       C  0.79956871  0.28808658  0.56687702     1.03300
O2014       O  0.72356605  0.33726222  0.54920544    -1.13900
O2015       O  0.67250279  0.35714075  0.59502214    -0.76300
O2016       O  0.70347479  0.30210016  0.59850341    -0.79800
O2017       O  0.77092522  0.29645597  0.01141604    -0.80500
C2018       C  0.68414912  0.32851474  0.60892392     0.94700
O2019       O  0.65520597  0.28965647  0.55038917    -0.78500
O2020       O  0.72699138  0.41599804  0.57143256    -0.83700
C2021       C  0.71203664  0.38850631  0.49387207     0.97400
C2022       C  0.76058150  0.42216227  0.56256757     1.03300
O2023       O  0.74163529  0.36817564  0.49538573    -0.79300
C2024       C  0.64448997  0.31050931  0.53085420     1.01600
Fe2025     Fe  0.52932115  0.29648061  0.93750126     1.65800
Fe2026     Fe  0.62197986  0.32096762  0.94302256     1.73200
Fe2027     Fe  0.59098183  0.23722156  0.96714102     1.54400
O2028       O  0.54032538  0.23663192  0.98566800    -0.83000
O2029       O  0.66013582  0.28074593  0.92598615    -0.81400
O2030       O  0.51162825  0.29054210  0.97536168    -0.85600
O2031       O  0.51378462  0.23981864  0.92899322    -0.80400
O2032       O  0.61214127  0.26535017  0.50191659    -0.82200
O2033       O  0.60144069  0.33572852  0.90271157    -0.84900
C2034       C  0.53180227  0.20870344  0.93019537     0.95800
C2035       C  0.51467867  0.26076289  0.48883865     1.03300
O2036       O  0.58139846  0.28425198  0.94821619    -1.13900
O2037       O  0.59029963  0.36018422  0.96470357    -0.76300
O2038       O  0.53408874  0.35295548  0.94724216    -0.79800
O2039       O  0.56733642  0.20824972  0.93451331    -0.80500
C2040       C  0.55489828  0.36354335  0.96682620     0.94700
O2041       O  0.54629368  0.30494607  0.89914934    -0.78500
O2042       O  0.64385239  0.31253275  0.98235003    -0.83700
C2043       C  0.66612490  0.24700254  0.93460871     0.97400
C2044       C  0.63249535  0.29491069  0.00365864     1.03300
O2045       O  0.64333146  0.23032658  0.95045253    -0.79300
C2046       C  0.57272597  0.32430571  0.88879977     1.01600
Fe2047     Fe  0.53988171  0.28591809  0.81024589     1.65800
Fe2048     Fe  0.56436837  0.37857801  0.80472395     1.73200
Fe2049     Fe  0.98062298  0.34757856  0.78060478     1.54400
O2050       O  0.98003340  0.29692218  0.76207848    -0.83000
O2051       O  0.52414574  0.41673447  0.82175877    -0.81400
O2052       O  0.53394198  0.26822295  0.77238605    -0.85600
O2053       O  0.98321942  0.27038121  0.81875448    -0.80400
O2054       O  0.50875193  0.36873899  0.74582895    -0.82200
O2055       O  0.57912768  0.35804049  0.84503554    -0.84900
C2056       C  0.95210405  0.28839857  0.81755092     0.95800
C2057       C  0.00416435  0.27127315  0.75890930     1.03300
O2058       O  0.52765330  0.33799556  0.79953002    -1.13900
O2059       O  0.60358705  0.34689827  0.78304467    -0.76300
O2060       O  0.59635623  0.29068602  0.80050361    -0.79800
O2061       O  0.95165068  0.32393275  0.81323250    -0.80500
C2062       C  0.60694412  0.31149689  0.78092021     0.94700
O2063       O  0.54834828  0.30289168  0.84859762    -0.78500
O2064       O  0.55593542  0.40044880  0.76539552    -0.83700
C2065       C  0.99040270  0.42272315  0.81313550     0.97400
C2066       C  0.53831269  0.38909303  0.74408679     1.03300
O2067       O  0.97372705  0.39992852  0.79729246    -0.79300
C2068       C  0.56770635  0.32932514  0.85894725     1.01600
Fe2069     Fe  0.96173467  0.22926310  0.68770778     1.65800
Fe2070     Fe  0.93672530  0.13668619  0.69310236     1.73200
Fe2071     Fe  0.52030438  0.16729831  0.71779676     1.54400
O2072       O  0.54988652  0.19081461  0.68540529    -0.83000
O2073       O  0.94459364  0.11471665  0.73243890    -0.81400
O2074       O  0.51854372  0.24443700  0.67941634    -0.85600
O2075       O  0.96745481  0.24709058  0.72556501    -0.80400
O2076       O  0.52715398  0.11492114  0.70114779    -0.82200
O2077       O  0.89733633  0.16845928  0.71454661    -0.84900
C2078       C  0.49700100  0.24380345  0.73927299     0.95800
C2079       C  0.54957526  0.22630401  0.68087145     1.03300
O2080       O  0.97357201  0.17712657  0.69853873    -1.13900
O2081       O  0.92250493  0.15725802  0.65272303    -0.76300
O2082       O  0.95348108  0.21229552  0.64924316    -0.79800
O2083       O  0.52093464  0.21792590  0.73633103    -0.80500
C2084       C  0.93415343  0.18588334  0.63882189     0.94700
O2085       O  0.90521123  0.22473463  0.69735826    -0.78500
O2086       O  0.97699186  0.09839470  0.67630620    -0.83700
C2087       C  0.96203989  0.12587932  0.75386887     0.97400
C2088       C  0.51058149  0.09222739  0.68517096     1.03300
O2089       O  0.99163912  0.14620832  0.75235620    -0.79300
C2090       C  0.89449518  0.20388197  0.71689309     1.01600
Fe2091     Fe  0.97266569  0.21833705  0.56004113     1.65800
Fe2092     Fe  0.88008856  0.19332638  0.55464369     1.73200
Fe2093     Fe  0.91070102  0.27690447  0.52994855     1.54400
O2094       O  0.93421542  0.30648819  0.56234009    -0.83000
O2095       O  0.85811998  0.20119330  0.51530654    -0.81400
O2096       O  0.98783759  0.27514653  0.56833386    -0.85600
O2097       O  0.99049813  0.22405780  0.52218564    -0.80400
O2098       O  0.85832264  0.28375423  0.54659638    -0.82200
O2099       O  0.91186304  0.15393756  0.53320047    -0.84900
C2100       C  0.98720821  0.25360323  0.00847519     0.95800
C2101       C  0.96970440  0.30617774  0.56687591     1.03300
O2102       O  0.92052934  0.23017324  0.54920795    -1.13900
O2103       O  0.90065793  0.17910638  0.59502381    -0.76300
O2104       O  0.95569507  0.21008246  0.59850499    -0.79800
O2105       O  0.96132964  0.27753414  0.01141537    -0.80500
C2106       C  0.92928256  0.19075486  0.60892563     0.94700
O2107       O  0.96813897  0.16181380  0.55038787    -0.78500
O2108       O  0.84179581  0.23359272  0.57143847    -0.83700
C2109       C  0.86928222  0.21863927  0.49387630     0.97400
C2110       C  0.83562831  0.26718196  0.56257301     1.03300
O2111       O  0.88961227  0.24823786  0.49538884    -0.79300
C2112       C  0.94728578  0.15109749  0.53085320     1.01600
Fe2113     Fe  0.96131916  0.53592599  0.43749967     1.65800
Fe2114     Fe  0.93682632  0.62858400  0.44302053     1.73200
Fe2115     Fe  0.52057488  0.59758811  0.46713949     1.54400
O2116       O  0.52116804  0.54693228  0.98566679    -0.83000
O2117       O  0.97704578  0.66674174  0.42598482    -0.81400
O2118       O  0.96725920  0.51823463  0.47536024    -0.85600
O2119       O  0.51798194  0.52039072  0.42899153    -0.80400
O2120       O  0.99244518  0.61874803  0.00191502    -0.82200
O2121       O  0.92206646  0.60804360  0.40270890    -0.84900
C2122       C  0.54909675  0.53840805  0.43019436     0.95800
C2123       C  0.49703704  0.52128522  0.98883732     1.03300
O2124       O  0.97354491  0.58800370  0.44821417    -1.13900
O2125       O  0.89761128  0.59690328  0.46470157    -0.76300
O2126       O  0.90484436  0.54069200  0.44724144    -0.79800
O2127       O  0.54954956  0.57394224  0.43451266    -0.80500
C2128       C  0.89425573  0.56150186  0.46682534     0.94700
O2129       O  0.95285137  0.55289688  0.39914733    -0.78500
O2130       O  0.94525961  0.65045653  0.48234864    -0.83700
C2131       C  0.51078856  0.67273127  0.43460807     0.97400
C2132       C  0.96288359  0.63910152  0.50365724     1.03300
O2133       O  0.52746579  0.64993734  0.45045106    -0.79300
C2134       C  0.93348950  0.57932796  0.38879739     1.01600
Fe2135     Fe  0.97187077  0.54647321  0.31024359     1.65800
Fe2136     Fe  0.87921298  0.57096600  0.30472137     1.73200
Fe2137     Fe  0.91020966  0.98721806  0.28060213     1.54400
O2138       O  0.96086631  0.98662500  0.26207571    -0.83000
O2139       O  0.84105582  0.53074623  0.32175742    -0.81400
O2140       O  0.98956471  0.54053291  0.27238366    -0.85600
O2141       O  0.98740529  0.98981049  0.31875206    -0.80400
O2142       O  0.88905162  0.51534847  0.24582662    -0.82200
O2143       O  0.89975243  0.58572772  0.34503270    -0.84900
C2144       C  0.96938796  0.95869575  0.31754811     0.95800
C2145       C  0.98651374  0.51075487  0.25890590     1.03300
O2146       O  0.91979356  0.53424757  0.29952810    -1.13900
O2147       O  0.91089419  0.61018034  0.28303997    -0.76300
O2148       O  0.96710481  0.60294782  0.30050128    -0.79800
O2149       O  0.93385399  0.95824305  0.31322910    -0.80500
C2150       C  0.94629571  0.61353598  0.28091685     0.94700
O2151       O  0.95489805  0.55494150  0.34859561    -0.78500
O2152       O  0.85734036  0.56253161  0.26539361    -0.83700
C2153       C  0.83506640  0.99700350  0.31313379     0.97400
C2154       C  0.86869695  0.54490918  0.24408475     1.03300
O2155       O  0.85785993  0.98032696  0.29729001    -0.79300
C2156       C  0.92846723  0.57430458  0.35894483     1.01600
Fe2157     Fe  0.53946445  0.97927020  0.06003906     1.65800
Fe2158     Fe  0.56446965  0.88669091  0.05464047     1.73200
Fe2159     Fe  0.98089308  0.91730953  0.02994775     1.54400
O2160       O  0.95131499  0.94082287  0.06234198    -0.83000
O2161       O  0.55659998  0.86472372  0.01530373    -0.81400
O2162       O  0.98265520  0.99444530  0.06833232    -0.85600
O2163       O  0.53374379  0.99710331  0.02218362    -0.80400
O2164       O  0.97404001  0.86493105  0.04659412    -0.82200
O2165       O  0.60385921  0.91846380  0.03319666    -0.84900
C2166       C  0.00419816  0.99381593  0.50847447     0.95800
C2167       C  0.95162445  0.97631186  0.06687640     1.03300
O2168       O  0.52762558  0.92713457  0.04920557    -1.13900
O2169       O  0.57869159  0.90725810  0.09502026    -0.76300
O2170       O  0.54771905  0.96229825  0.09850242    -0.79800
O2171       O  0.98026500  0.96793927  0.51141593    -0.80500
C2172       C  0.56704438  0.93588308  0.10892256     0.94700
O2173       O  0.59598761  0.97473999  0.05038573    -0.78500
O2174       O  0.52420095  0.84840114  0.07143591    -0.83700
C2175       C  0.53915455  0.87588841  0.99387392     0.97400
C2176       C  0.99061105  0.84223595  0.06257108     1.03300
O2177       O  0.50955666  0.89622031  0.99538681    -0.79300
C2178       C  0.60670278  0.95388655  0.03085066     1.01600
Fe2179     Fe  0.52852762  0.96832871  0.18770367     1.65800
Fe2180     Fe  0.62110665  0.94332242  0.19310077     1.73200
Fe2181     Fe  0.59048926  0.52689918  0.21779449     1.54400
O2182       O  0.56697549  0.55647793  0.18540076    -0.83000
O2183       O  0.64307392  0.95119066  0.23243772    -0.81400
O2184       O  0.51335283  0.52513786  0.17941076    -0.85600
O2185       O  0.51069563  0.47404889  0.22555937    -0.80400
O2186       O  0.64286754  0.53375167  0.20114773    -0.82200
O2187       O  0.58933344  0.90393273  0.21454447    -0.84900
C2188       C  0.51398360  0.50359502  0.23926885     0.95800
C2189       C  0.53148653  0.55616843  0.18086616     1.03300
O2190       O  0.58066357  0.98016699  0.19853639    -1.13900
O2191       O  0.60053867  0.92910268  0.15272057    -0.76300
O2192       O  0.54549825  0.96007501  0.14924012    -0.79800
O2193       O  0.53985985  0.52752761  0.23632708    -0.80500
C2194       C  0.57191319  0.94075049  0.13881903     0.94700
O2195       O  0.53305722  0.91180546  0.19735627    -0.78500
O2196       O  0.65939755  0.98359057  0.17630600    -0.83700
C2197       C  0.63191011  0.96863663  0.25386764     0.97400
C2198       C  0.66556291  0.51718036  0.18517109     1.03300
O2199       O  0.61157877  0.49823489  0.25235491    -0.79300
C2200       C  0.55391071  0.90108979  0.21689103     1.01600
Fe2201     Fe  0.72187504  0.96791416  0.43749708     1.65800
Fe2202     Fe  0.62921501  0.94342785  0.44301821     1.73200
Fe2203     Fe  0.66021399  0.52717371  0.46713693     1.54400
O2204       O  0.71087033  0.52776429  0.98566340    -0.83000
O2205       O  0.59105849  0.98365029  0.42598295    -0.81400
O2206       O  0.73956943  0.97385531  0.47535694    -0.85600
O2207       O  0.73741161  0.52457616  0.42898769    -0.80400
O2208       O  0.63905364  0.49904558  0.00191296    -0.82200
O2209       O  0.64975347  0.92866765  0.40270683    -0.84900
C2210       C  0.71939385  0.55569132  0.43019081     0.95800
C2211       C  0.73651912  0.50363287  0.98883336     1.03300
O2212       O  0.66979733  0.98014285  0.44821230    -1.13900
O2213       O  0.66089440  0.90420980  0.46469849    -0.76300
O2214       O  0.71710745  0.91143981  0.44724050    -0.79800
O2215       O  0.68385957  0.55614436  0.43450849    -0.80500
C2216       C  0.69629566  0.90085204  0.46682348     0.94700
O2217       O  0.70490259  0.95944648  0.39914530    -0.78500
O2218       O  0.60734364  0.95186213  0.48234628    -0.83700
C2219       C  0.58506950  0.51739331  0.43460649     0.97400
C2220       C  0.61869949  0.96948485  0.50365501     1.03300
O2221       O  0.60786408  0.53406902  0.45044943    -0.79300
C2222       C  0.67846942  0.94008841  0.38879543     1.01600
Fe2223     Fe  0.71131744  0.97847040  0.31024124     1.65800
Fe2224     Fe  0.68682945  0.88581190  0.30472098     1.73200
Fe2225     Fe  0.77057606  0.91680869  0.28060199     1.54400
O2226       O  0.77116678  0.96746463  0.26207430    -0.83000
O2227       O  0.72705039  0.84765645  0.32175851    -0.81400
O2228       O  0.71725683  0.99616211  0.27238065    -0.85600
O2229       O  0.76797926  0.99400672  0.31874954    -0.80400
O2230       O  0.74244678  0.89564895  0.24582687    -0.82200
O2231       O  0.67206727  0.90635297  0.34503135    -0.84900
C2232       C  0.79909457  0.97598933  0.31754695     0.95800
C2233       C  0.74703609  0.99311158  0.25890374     1.03300
O2234       O  0.72354581  0.92639278  0.29952708    -1.13900
O2235       O  0.64761429  0.91749179  0.28303838    -0.76300
O2236       O  0.65484282  0.97370300  0.30049948    -0.79800
O2237       O  0.79954860  0.94045507  0.31322906    -0.80500
C2238       C  0.64425532  0.95289317  0.28091544     0.94700
O2239       O  0.70285105  0.96149921  0.34859345    -0.78500
O2240       O  0.69526533  0.86393724  0.26539429    -0.83700
C2241       C  0.76079349  0.84166658  0.31313555     0.97400
C2242       C  0.71288638  0.87529473  0.24408536     1.03300
O2243       O  0.77746965  0.86445934  0.29729127    -0.79300
C2244       C  0.68349017  0.93506780  0.35894302     1.01600
Fe2245     Fe  0.77852872  0.54606129  0.06003648     1.65800
Fe2246     Fe  0.87110541  0.57107300  0.05464026     1.73200
Fe2247     Fe  0.84049412  0.98749321  0.02994570     1.54400
O2248       O  0.81697778  0.95790967  0.06233665    -0.83000
O2249       O  0.89307342  0.56320640  0.01530316    -0.81400
O2250       O  0.76335562  0.98925193  0.06832783    -0.85600
O2251       O  0.76069874  0.54034109  0.02217985    -0.80400
O2252       O  0.89287125  0.98064368  0.04659495    -0.82200
O2253       O  0.83933080  0.61046222  0.03319769    -0.84900
C2254       C  0.76398767  0.51079654  0.50847047     0.95800
C2255       C  0.78148854  0.95822054  0.06687144     1.03300
O2256       O  0.83066531  0.53422540  0.04920407    -1.13900
O2257       O  0.85053520  0.58529191  0.09502010    -0.76300
O2258       O  0.79549816  0.55431504  0.09850071    -0.79800
O2259       O  0.78986656  0.98686365  0.51141133    -0.80500
C2260       C  0.82191069  0.57364255  0.10892165     0.94700
O2261       O  0.78305595  0.60258461  0.05038622    -0.78500
O2262       O  0.90939844  0.53080700  0.07143511    -0.83700
C2263       C  0.88191219  0.54575862  0.99387345     0.97400
C2264       C  0.91556542  0.99721692  0.06257111     1.03300
O2265       O  0.86158446  0.51615858  0.99538645    -0.79300
C2266       C  0.80390793  0.61330110  0.03085118     1.01600
Fe2267     Fe  0.78946163  0.53512672  0.18770213     1.65800
Fe2268     Fe  0.81447039  0.62770454  0.19310066     1.73200
Fe2269     Fe  0.73089293  0.59708995  0.21779503     1.54400
O2270       O  0.70131070  0.57357576  0.18540272    -0.83000
O2271       O  0.80660355  0.64967112  0.23243860    -0.81400
O2272       O  0.73265248  0.51995358  0.17940970    -0.85600
O2273       O  0.78374203  0.51729351  0.22555758    -0.80400
O2274       O  0.72404156  0.64946850  0.20114792    -0.82200
O2275       O  0.85386045  0.59593033  0.21454253    -0.84900
C2276       C  0.75419603  0.52058242  0.23926758     0.95800
C2277       C  0.70162123  0.53808682  0.18086688     1.03300
O2278       O  0.77762464  0.58726284  0.19853602    -1.13900
O2279       O  0.82868941  0.60713653  0.15272006    -0.76300
O2280       O  0.79771501  0.55209828  0.14923862    -0.79800
O2281       O  0.73026466  0.54646053  0.23632731    -0.80500
C2282       C  0.81704100  0.57851200  0.13881805     0.94700
O2283       O  0.84598485  0.53965473  0.19735424    -0.78500
O2284       O  0.77420322  0.66599675  0.17630658    -0.83700
C2285       C  0.78915673  0.63850876  0.25386849     0.97400
C2286       C  0.74061356  0.67216323  0.18517150     1.03300
O2287       O  0.75955807  0.61817888  0.25235532    -0.79300
C2288       C  0.85670108  0.56050757  0.21688913     1.01600
Fe2289     Fe  0.78987387  0.72846980  0.43750055     1.65800
Fe2290     Fe  0.81436750  0.63581232  0.44302098     1.73200
Fe2291     Fe  0.73061759  0.66680651  0.46713816     1.54400
O2292       O  0.73002299  0.71746196  0.98566694    -0.83000
O2293       O  0.77415025  0.59765431  0.42598272    -0.81400
O2294       O  0.78393177  0.74616027  0.47536120    -0.85600
O2295       O  0.73321156  0.74400481  0.42899140    -0.80400
O2296       O  0.75874676  0.64564703  0.00191337    -0.82200
O2297       O  0.82912931  0.65635368  0.40271075    -0.84900
C2298       C  0.70209678  0.72598759  0.43019420     0.95800
C2299       C  0.75415380  0.74310910  0.98883817     1.03300
O2300       O  0.77764807  0.67639187  0.44821402    -1.13900
O2301       O  0.85357913  0.66749407  0.46470522    -0.76300
O2302       O  0.84634854  0.72370514  0.44724417    -0.79800
O2303       O  0.70164393  0.69045311  0.43451122    -0.80500
C2304       C  0.85693677  0.70289550  0.46682833     0.94700
O2305       O  0.79834295  0.71149939  0.39914821    -0.78500
O2306       O  0.80593156  0.61393743  0.48234722    -0.83700
C2307       C  0.74040698  0.59166394  0.43460493     0.97400
C2308       C  0.78830857  0.62529412  0.50365563     1.03300
O2309       O  0.72372871  0.61445724  0.45044806    -0.79300
C2310       C  0.81770500  0.68506799  0.38879878     1.01600
Fe2311     Fe  0.77932433  0.71791731  0.31024384     1.65800
Fe2312     Fe  0.87198240  0.69342362  0.30472402     1.73200
Fe2313     Fe  0.84098815  0.77717266  0.28060558     1.54400
O2314       O  0.79033269  0.77776736  0.26207707    -0.83000
O2315       O  0.91014102  0.73364201  0.32176083    -0.81400
O2316       O  0.76163344  0.72385923  0.27238323    -0.85600
O2317       O  0.76378997  0.77457986  0.31875283    -0.80400
O2318       O  0.86214785  0.74904278  0.24583054    -0.82200
O2319       O  0.85144137  0.67866422  0.34503488    -0.84900
C2320       C  0.78180776  0.80569434  0.31754997     0.95800
C2321       C  0.76468483  0.75363612  0.25890608     1.03300
O2322       O  0.83140254  0.73014251  0.29953007    -1.13900
O2323       O  0.84030078  0.65421022  0.28304119    -0.76300
O2324       O  0.78408880  0.66144256  0.30050047    -0.79800
O2325       O  0.81734212  0.80614656  0.31323267    -0.80500
C2326       C  0.80489936  0.65085380  0.28091691     0.94700
O2327       O  0.79629455  0.70944889  0.34859617    -0.78500
O2328       O  0.89385629  0.70185738  0.26539710    -0.83700
C2329       C  0.91613139  0.76738485  0.31313781     0.97400
C2330       C  0.88250058  0.71948073  0.24408857     1.03300
O2331       O  0.89333763  0.78406244  0.29729477    -0.79300
C2332       C  0.82272632  0.69008832  0.35894628     1.01600
Fe2333     Fe  0.72266787  0.79606210  0.18770256     1.65800
Fe2334     Fe  0.63008919  0.82107038  0.19310379     1.73200
Fe2335     Fe  0.66070806  0.73749296  0.21779695     1.54400
O2336       O  0.68421963  0.70791321  0.18540284    -0.83000
O2337       O  0.60812571  0.81320286  0.23244238    -0.81400
O2338       O  0.73784159  0.73925276  0.17940946    -0.85600
O2339       O  0.74050523  0.79034174  0.22555731    -0.80400
O2340       O  0.60832921  0.73063974  0.20115170    -0.82200
O2341       O  0.66186364  0.86046114  0.21454432    -0.84900
C2342       C  0.73721682  0.76079826  0.23926790     0.95800
C2343       C  0.71970820  0.70822226  0.18086691     1.03300
O2344       O  0.67053262  0.78422532  0.19853840    -1.13900
O2345       O  0.65065436  0.83529103  0.15272271    -0.76300
O2346       O  0.70569346  0.80431684  0.14924005    -0.79800
O2347       O  0.71133828  0.73686557  0.23632801    -0.80500
C2348       C  0.67927949  0.82364413  0.13882027     0.94700
O2349       O  0.71813865  0.85258494  0.19735457    -0.78500
O2350       O  0.59179755  0.78080133  0.17631104    -0.83700
C2351       C  0.61928880  0.79575494  0.25387172     0.97400
C2352       C  0.58563319  0.74721108  0.18517567     1.03300
O2353       O  0.63961932  0.76615622  0.25235799    -0.79300
C2354       C  0.69728659  0.86330074  0.21689010     1.01600
Fe2355     Fe  0.71172894  0.78512678  0.06004071     1.65800
Fe2356     Fe  0.68672175  0.87770607  0.05464063     1.73200
Fe2357     Fe  0.77029837  0.84708671  0.02994676     1.54400
O2358       O  0.79987756  0.82357525  0.06234111    -0.83000
O2359       O  0.69458836  0.89966889  0.01530154    -0.81400
O2360       O  0.76853837  0.76995280  0.06833350    -0.85600
O2361       O  0.71744815  0.76729033  0.02218587    -0.80400
O2362       O  0.77715253  0.89946584  0.04659165    -0.82200
O2363       O  0.64732990  0.84593220  0.03320072    -0.84900
C2364       C  0.74699285  0.77057833  0.50847572     0.95800
C2365       C  0.79956873  0.78808666  0.06687696     1.03300
O2366       O  0.72356613  0.83726232  0.04920545    -1.13900
O2367       O  0.67250266  0.85714066  0.09502214    -0.76300
O2368       O  0.70347491  0.80210021  0.09850338    -0.79800
O2369       O  0.77092527  0.79645598  0.51141603    -0.80500
C2370       C  0.68414909  0.82851465  0.10892391     0.94700
O2371       O  0.65520603  0.78965651  0.05038916    -0.78500
O2372       O  0.72699138  0.91599799  0.07143259    -0.83700
C2373       C  0.71203664  0.88850628  0.99387207     0.97400
C2374       C  0.76058153  0.92216226  0.06256761     1.03300
O2375       O  0.74163526  0.86817560  0.99538572    -0.79300
C2376       C  0.64448996  0.81050933  0.03085421     1.01600
Fe2377     Fe  0.52932117  0.79648067  0.43750128     1.65800
Fe2378     Fe  0.62197990  0.82096773  0.44302256     1.73200
Fe2379     Fe  0.59098184  0.73722151  0.46714102     1.54400
O2380       O  0.54032529  0.73663179  0.48566798    -0.83000
O2381       O  0.66013587  0.78074604  0.42598618    -0.81400
O2382       O  0.51162834  0.79054211  0.47536174    -0.85600
O2383       O  0.51378453  0.73981873  0.42899324    -0.80400
O2384       O  0.61214118  0.76535017  0.00191661    -0.82200
O2385       O  0.60144073  0.83572858  0.40271158    -0.84900
C2386       C  0.53180217  0.70870351  0.43019541     0.95800
C2387       C  0.51467865  0.76076291  0.98883865     1.03300
O2388       O  0.58139854  0.78425197  0.44821613    -1.13900
O2389       O  0.59029958  0.86018437  0.46470350    -0.76300
O2390       O  0.53408869  0.85295547  0.44724218    -0.79800
O2391       O  0.56733633  0.70824976  0.43451331    -0.80500
C2392       C  0.55489820  0.86354334  0.46682620     0.94700
O2393       O  0.54629362  0.80494625  0.39914936    -0.78500
O2394       O  0.64385242  0.81253282  0.48235004    -0.83700
C2395       C  0.66612490  0.74700260  0.43460873     0.97400
C2396       C  0.63249540  0.79491070  0.50365864     1.03300
O2397       O  0.64333148  0.73032665  0.45045255    -0.79300
C2398       C  0.57272597  0.82430581  0.38879979     1.01600
Fe2399     Fe  0.53988173  0.78591812  0.31024592     1.65800
Fe2400     Fe  0.56436840  0.87857805  0.30472398     1.73200
Fe2401     Fe  0.98062305  0.84757862  0.28060480     1.54400
O2402       O  0.98003348  0.79692225  0.26207847    -0.83000
O2403       O  0.52414579  0.91673460  0.32175879    -0.81400
O2404       O  0.53394192  0.76822280  0.27238613    -0.85600
O2405       O  0.98321947  0.77038116  0.31875449    -0.80400
O2406       O  0.50875178  0.86873907  0.24582895    -0.82200
O2407       O  0.57912776  0.85804057  0.34503556    -0.84900
C2408       C  0.95210409  0.78839858  0.31755087     0.95800
C2409       C  0.00416430  0.77127312  0.25890934     1.03300
O2410       O  0.52765336  0.83799561  0.29953002    -1.13900
O2411       O  0.60358693  0.84689817  0.28304467    -0.76300
O2412       O  0.59635626  0.79068583  0.30050356    -0.79800
O2413       O  0.95165075  0.82393270  0.31323249    -0.80500
C2414       C  0.60694415  0.81149681  0.28092020     0.94700
O2415       O  0.54834820  0.80289186  0.34859764    -0.78500
O2416       O  0.55593535  0.90044870  0.26539554    -0.83700
C2417       C  0.99040273  0.92272322  0.31313552     0.97400
C2418       C  0.53831263  0.88909300  0.24408681     1.03300
O2419       O  0.97372713  0.89992859  0.29729248    -0.79300
C2420       C  0.56770636  0.82932525  0.35894727     1.01600
Fe2421     Fe  0.96173468  0.72926317  0.18770780     1.65800
Fe2422     Fe  0.93672535  0.63668613  0.19310236     1.73200
Fe2423     Fe  0.52030443  0.66729827  0.21779675     1.54400
O2424       O  0.54988642  0.69081471  0.18540525    -0.83000
O2425       O  0.94459363  0.61471663  0.23243889    -0.81400
O2426       O  0.51854370  0.74443715  0.17941633    -0.85600
O2427       O  0.96745474  0.74709065  0.22556503    -0.80400
O2428       O  0.52715403  0.61492120  0.20114767    -0.82200
O2429       O  0.89733633  0.66845922  0.21454655    -0.84900
C2430       C  0.49700098  0.74380343  0.23927302     0.95800
C2431       C  0.54957520  0.72630414  0.18087140     1.03300
O2432       O  0.97357205  0.67712657  0.19853874    -1.13900
O2433       O  0.92250484  0.65725793  0.15272303    -0.76300
O2434       O  0.95348089  0.71229553  0.14924319    -0.79800
O2435       O  0.52093464  0.71792589  0.23633103    -0.80500
C2436       C  0.93415329  0.68588332  0.13882191     0.94700
O2437       O  0.90521131  0.72473458  0.19735825    -0.78500
O2438       O  0.97699191  0.59839471  0.17630621    -0.83700
C2439       C  0.96203995  0.62587921  0.25386887     0.97400
C2440       C  0.51058148  0.59222741  0.18517093     1.03300
O2441       O  0.99163923  0.64620812  0.25235618    -0.79300
C2442       C  0.89449527  0.70388193  0.21689307     1.01600
Fe2443     Fe  0.97266574  0.71833713  0.06004113     1.65800
Fe2444     Fe  0.88008859  0.69332649  0.05464370     1.73200
Fe2445     Fe  0.91070093  0.77690454  0.02994856     1.54400
O2446       O  0.93421539  0.80648817  0.06234013    -0.83000
O2447       O  0.85812003  0.70119337  0.01530656    -0.81400
O2448       O  0.98783765  0.77514662  0.06833389    -0.85600
O2449       O  0.99049800  0.72405779  0.02218557    -0.80400
O2450       O  0.85832256  0.78375428  0.04659634    -0.82200
O2451       O  0.91186305  0.65393767  0.03320049    -0.84900
C2452       C  0.98720819  0.75360321  0.50847520     0.95800
C2453       C  0.96970437  0.80617780  0.06687593     1.03300
O2454       O  0.92052935  0.73017335  0.04920798    -1.13900
O2455       O  0.90065789  0.67910648  0.09502379    -0.76300
O2456       O  0.95569515  0.71008238  0.09850501    -0.79800
O2457       O  0.96132965  0.77753412  0.51141536    -0.80500
C2458       C  0.92928253  0.69075487  0.10892563     0.94700
O2459       O  0.96813899  0.66181391  0.05038788    -0.78500
O2460       O  0.84179574  0.73359278  0.07143844    -0.83700
C2461       C  0.86928223  0.71863929  0.99387630     0.97400
C2462       C  0.83562824  0.76718199  0.06257295     1.03300
O2463       O  0.88961227  0.74823790  0.99538881    -0.79300
C2464       C  0.94728580  0.65109761  0.03085321     1.01600
Fe2465     Fe  0.96131910  0.53592613  0.93749968     1.65800
Fe2466     Fe  0.93682642  0.62858412  0.94302051     1.73200
Fe2467     Fe  0.52057494  0.59758811  0.96713957     1.54400
O2468       O  0.52116806  0.54693225  0.48566678    -0.83000
O2469       O  0.97704592  0.66674172  0.92598478    -0.81400
O2470       O  0.96725918  0.51823477  0.97536024    -0.85600
O2471       O  0.51798190  0.52039078  0.92899151    -0.80400
O2472       O  0.99244511  0.61874797  0.50191495    -0.82200
O2473       O  0.92206657  0.60804372  0.90270889    -0.84900
C2474       C  0.54909676  0.53840806  0.93019434     0.95800
C2475       C  0.49703710  0.52128511  0.48883730     1.03300
O2476       O  0.97354494  0.58800379  0.94821421    -1.13900
O2477       O  0.89761139  0.59690339  0.96470158    -0.76300
O2478       O  0.90484437  0.54069214  0.94724141    -0.79800
O2479       O  0.54954963  0.57394222  0.93451271    -0.80500
C2480       C  0.89425577  0.56150198  0.96682533     0.94700
O2481       O  0.95285133  0.55289693  0.89914738    -0.78500
O2482       O  0.94525968  0.65045655  0.98234864    -0.83700
C2483       C  0.51078871  0.67273124  0.93460805     0.97400
C2484       C  0.96288360  0.63910152  0.00365726     1.03300
O2485       O  0.52746591  0.64993738  0.95045111    -0.79300
C2486       C  0.93348946  0.57932796  0.88879742     1.01600
Fe2487     Fe  0.97187083  0.54647333  0.81024359     1.65800
Fe2488     Fe  0.87921303  0.57096596  0.80472135     1.73200
Fe2489     Fe  0.91020974  0.98721800  0.78060213     1.54400
O2490       O  0.96086637  0.98662499  0.76207574    -0.83000
O2491       O  0.84105591  0.53074616  0.82175741    -0.81400
O2492       O  0.98956479  0.54053288  0.77238364    -0.85600
O2493       O  0.98740531  0.98981045  0.81875217    -0.80400
O2494       O  0.88905153  0.51534845  0.74582670    -0.82200
O2495       O  0.89975244  0.58572771  0.84503268    -0.84900
C2496       C  0.96938797  0.95869568  0.81754812     0.95800
C2497       C  0.98651375  0.51075485  0.75890586     1.03300
O2498       O  0.91979363  0.53424756  0.79952808    -1.13900
O2499       O  0.91089416  0.61018044  0.78304000    -0.76300
O2500       O  0.96710484  0.60294796  0.80050124    -0.79800
O2501       O  0.93385406  0.95824300  0.81322908    -0.80500
C2502       C  0.94629568  0.61353604  0.78091682     0.94700
O2503       O  0.95489801  0.55494147  0.84859563    -0.78500
O2504       O  0.85734025  0.56253162  0.76539364    -0.83700
C2505       C  0.83506638  0.99700346  0.81313376     0.97400
C2506       C  0.86869689  0.54490918  0.74408480     1.03300
O2507       O  0.85785990  0.98032690  0.79728995    -0.79300
C2508       C  0.92846717  0.57430451  0.85894486     1.01600
Fe2509     Fe  0.53946441  0.97927014  0.56003906     1.65800
Fe2510     Fe  0.56446970  0.88669089  0.55464047     1.73200
Fe2511     Fe  0.98089299  0.91730960  0.52994773     1.54400
O2512       O  0.95131501  0.94082287  0.56234199    -0.83000
O2513       O  0.55660004  0.86472383  0.51530374    -0.81400
O2514       O  0.98265519  0.99444530  0.56833229    -0.85600
O2515       O  0.53374380  0.99710331  0.52218367    -0.80400
O2516       O  0.97404005  0.86493105  0.54659408    -0.82200
O2517       O  0.60385933  0.91846383  0.53319665    -0.84900
C2518       C  0.00419808  0.99381598  0.00847449     0.95800
C2519       C  0.95162444  0.97631182  0.56687641     1.03300
O2520       O  0.52762554  0.92713453  0.54920555    -1.13900
O2521       O  0.57869153  0.90725802  0.59502030    -0.76300
O2522       O  0.54771910  0.96229824  0.59850240    -0.79800
O2523       O  0.98026495  0.96793928  0.01141593    -0.80500
C2524       C  0.56704441  0.93588307  0.60892257     0.94700
O2525       O  0.59598762  0.97473998  0.55038574    -0.78500
O2526       O  0.52420099  0.84840111  0.57143590    -0.83700
C2527       C  0.53915449  0.87588839  0.49387395     0.97400
C2528       C  0.99061108  0.84223591  0.56257103     1.03300
O2529       O  0.50955658  0.89622030  0.49538684    -0.79300
C2530       C  0.60670288  0.95388659  0.53085066     1.01600
Fe2531     Fe  0.52852748  0.96832880  0.68770367     1.65800
Fe2532     Fe  0.62110658  0.94332240  0.69310084     1.73200
Fe2533     Fe  0.59048914  0.52689912  0.71779447     1.54400
O2534       O  0.56697548  0.55647791  0.68540074    -0.83000
O2535       O  0.64307396  0.95119060  0.73243775    -0.81400
O2536       O  0.51335287  0.52513780  0.67941087    -0.85600
O2537       O  0.51069569  0.47404878  0.72555937    -0.80400
O2538       O  0.64286743  0.53375169  0.70114771    -0.82200
O2539       O  0.58933344  0.90393265  0.71454445    -0.84900
C2540       C  0.51398354  0.50359497  0.73926880     0.95800
C2541       C  0.53148652  0.55616839  0.68086617     1.03300
O2542       O  0.58066348  0.98016698  0.69853641    -1.13900
O2543       O  0.60053859  0.92910266  0.65272063    -0.76300
O2544       O  0.54549816  0.96007504  0.64924009    -0.79800
O2545       O  0.53985974  0.52752758  0.73632703    -0.80500
C2546       C  0.57191316  0.94075054  0.63881905     0.94700
O2547       O  0.53305719  0.91180549  0.69735626    -0.78500
O2548       O  0.65939755  0.98359062  0.67630605    -0.83700
C2549       C  0.63191015  0.96863657  0.75386768     0.97400
C2550       C  0.66556281  0.51718046  0.68517109     1.03300
O2551       O  0.61157866  0.49823485  0.75235490    -0.79300
C2552       C  0.55391071  0.90108978  0.71689101     1.01600
Fe2553     Fe  0.72187502  0.96791413  0.93749707     1.65800
Fe2554     Fe  0.62921512  0.94342793  0.94301819     1.73200
Fe2555     Fe  0.66021405  0.52717366  0.96713691     1.54400
O2556       O  0.71087026  0.52776429  0.48566345    -0.83000
O2557       O  0.59105860  0.98365030  0.92598291    -0.81400
O2558       O  0.73956945  0.97385521  0.97535697    -0.85600
O2559       O  0.73741169  0.52457610  0.92898768    -0.80400
O2560       O  0.63905351  0.49904561  0.50191295    -0.82200
O2561       O  0.64975358  0.92866764  0.90270682    -0.84900
C2562       C  0.71939386  0.55569127  0.93019079     0.95800
C2563       C  0.73651909  0.50363283  0.48883336     1.03300
O2564       O  0.66979739  0.98014285  0.94821229    -1.13900
O2565       O  0.66089444  0.90420981  0.96469845    -0.76300
O2566       O  0.71710750  0.91143976  0.94724049    -0.79800
O2567       O  0.68385961  0.55614426  0.93450846    -0.80500
C2568       C  0.69629566  0.90085199  0.96682348     0.94700
O2569       O  0.70490268  0.95944643  0.89914528    -0.78500
O2570       O  0.60734369  0.95186207  0.98234626    -0.83700
C2571       C  0.58506950  0.51739326  0.93460646     0.97400
C2572       C  0.61869952  0.96948476  0.00365502     1.03300
O2573       O  0.60786409  0.53406897  0.95044945    -0.79300
C2574       C  0.67846952  0.94008835  0.88879541     1.01600
Fe2575     Fe  0.71131751  0.97847033  0.81024123     1.65800
Fe2576     Fe  0.68682952  0.88581184  0.80472097     1.73200
Fe2577     Fe  0.77057614  0.91680864  0.78060198     1.54400
O2578       O  0.77116686  0.96746461  0.76207432    -0.83000
O2579       O  0.72705042  0.84765643  0.82175851    -0.81400
O2580       O  0.71725684  0.99616203  0.77238061    -0.85600
O2581       O  0.76797927  0.99400666  0.81874950    -0.80400
O2582       O  0.74244675  0.89564896  0.74582685    -0.82200
O2583       O  0.67206724  0.90635294  0.84503132    -0.84900
C2584       C  0.79909459  0.97598927  0.81754698     0.95800
C2585       C  0.74703619  0.99311158  0.75890378     1.03300
O2586       O  0.72354590  0.92639273  0.79952706    -1.13900
O2587       O  0.64761419  0.91749172  0.78303850    -0.76300
O2588       O  0.65484291  0.97370292  0.80049955    -0.79800
O2589       O  0.79954864  0.94045500  0.81322914    -0.80500
C2590       C  0.64425537  0.95289309  0.78091550     0.94700
O2591       O  0.70285119  0.96149910  0.84859343    -0.78500
O2592       O  0.69526538  0.86393713  0.76539428    -0.83700
C2593       C  0.76079347  0.84166655  0.81313553     0.97400
C2594       C  0.71288636  0.87529467  0.74408535     1.03300
O2595       O  0.77746963  0.86445928  0.79729122    -0.79300
C2596       C  0.68349025  0.93506773  0.85894300     1.01600
Fe2597     Fe  0.77852865  0.54606124  0.56003656     1.65800
Fe2598     Fe  0.87110533  0.57107294  0.55464024     1.73200
Fe2599     Fe  0.84049406  0.98749319  0.52994568     1.54400
O2600       O  0.81697781  0.95790961  0.56233662    -0.83000
O2601       O  0.89307336  0.56320643  0.51530316    -0.81400
O2602       O  0.76335569  0.98925193  0.56832786    -0.85600
O2603       O  0.76069880  0.54034110  0.52217984    -0.80400
O2604       O  0.89287127  0.98064368  0.54659495    -0.82200
O2605       O  0.83933073  0.61046215  0.53319771    -0.84900
C2606       C  0.76398769  0.51079652  0.00847046     0.95800
C2607       C  0.78148860  0.95822050  0.56687142     1.03300
O2608       O  0.83066526  0.53422534  0.54920409    -1.13900
O2609       O  0.85053527  0.58529190  0.59502009    -0.76300
O2610       O  0.79549825  0.55431498  0.59850074    -0.79800
O2611       O  0.78986664  0.98686354  0.01141135    -0.80500
C2612       C  0.82191077  0.57364256  0.60892165     0.94700
O2613       O  0.78305593  0.60258458  0.55038634    -0.78500
O2614       O  0.90939832  0.53080694  0.57143514    -0.83700
C2615       C  0.88191221  0.54575860  0.49387347     0.97400
C2616       C  0.91556545  0.99721694  0.56257113     1.03300
O2617       O  0.86158455  0.51615851  0.49538647    -0.79300
C2618       C  0.80390786  0.61330101  0.53085123     1.01600
Fe2619     Fe  0.78946166  0.53512686  0.68770211     1.65800
Fe2620     Fe  0.81447030  0.62770450  0.69310065     1.73200
Fe2621     Fe  0.73089282  0.59708995  0.71779504     1.54400
O2622       O  0.70131068  0.57357584  0.68540267    -0.83000
O2623       O  0.80660346  0.64967111  0.73243857    -0.81400
O2624       O  0.73265247  0.51995370  0.67940969    -0.85600
O2625       O  0.78374209  0.51729374  0.72555761    -0.80400
O2626       O  0.72404154  0.64946850  0.70114795    -0.82200
O2627       O  0.85386049  0.59593031  0.71454251    -0.84900
C2628       C  0.75419609  0.52058256  0.73926766     0.95800
C2629       C  0.70162122  0.53808687  0.68086686     1.03300
O2630       O  0.77762454  0.58726288  0.69853602    -1.13900
O2631       O  0.82868936  0.60713656  0.65272005    -0.76300
O2632       O  0.79771492  0.55209840  0.64923858    -0.79800
O2633       O  0.73026459  0.54646054  0.73632739    -0.80500
C2634       C  0.81704100  0.57851203  0.63881803     0.94700
O2635       O  0.84598495  0.53965473  0.69735425    -0.78500
O2636       O  0.77420321  0.66599679  0.67630662    -0.83700
C2637       C  0.78915659  0.63850883  0.75386846     0.97400
C2638       C  0.74061357  0.67216325  0.68517151     1.03300
O2639       O  0.75955788  0.61817903  0.75235531    -0.79300
C2640       C  0.85670114  0.56050755  0.71688914     1.01600
Fe2641     Fe  0.78987393  0.72846975  0.93750063     1.65800
Fe2642     Fe  0.81436758  0.63581229  0.94302097     1.73200
Fe2643     Fe  0.73061750  0.66680647  0.96713813     1.54400
O2644       O  0.73002294  0.71746203  0.48566694    -0.83000
O2645       O  0.77415023  0.59765429  0.92598272    -0.81400
O2646       O  0.78393186  0.74616020  0.97536126    -0.85600
O2647       O  0.73321160  0.74400483  0.92899142    -0.80400
O2648       O  0.75874677  0.64564707  0.50191345    -0.82200
O2649       O  0.82912946  0.65635372  0.90271075    -0.84900
C2650       C  0.70209680  0.72598760  0.93019420     0.95800
C2651       C  0.75415379  0.74310916  0.48883818     1.03300
O2652       O  0.77764805  0.67639178  0.94821401    -1.13900
O2653       O  0.85357922  0.66749410  0.96470521    -0.76300
O2654       O  0.84634861  0.72370513  0.94724415    -0.79800
O2655       O  0.70164395  0.69045313  0.93451119    -0.80500
C2656       C  0.85693678  0.70289551  0.96682835     0.94700
O2657       O  0.79834303  0.71149940  0.89914824    -0.78500
O2658       O  0.80593168  0.61393743  0.98234722    -0.83700
C2659       C  0.74040698  0.59166388  0.93460490     0.97400
C2660       C  0.78830864  0.62529418  0.00365559     1.03300
O2661       O  0.72372860  0.61445719  0.95044802    -0.79300
C2662       C  0.81770509  0.68506801  0.88879878     1.01600
Fe2663     Fe  0.77932440  0.71791727  0.81024381     1.65800
Fe2664     Fe  0.87198246  0.69342358  0.80472399     1.73200
Fe2665     Fe  0.84098806  0.77717264  0.78060558     1.54400
O2666       O  0.79033260  0.77776730  0.76207706    -0.83000
O2667       O  0.91014113  0.73364193  0.82176080    -0.81400
O2668       O  0.76163334  0.72385918  0.77238322    -0.85600
O2669       O  0.76378988  0.77457983  0.81875280    -0.80400
O2670       O  0.86214784  0.74904283  0.74583058    -0.82200
O2671       O  0.85144139  0.67866411  0.84503484    -0.84900
C2672       C  0.78180768  0.80569430  0.81754994     0.95800
C2673       C  0.76468471  0.75363607  0.75890609     1.03300
O2674       O  0.83140260  0.73014252  0.79953008    -1.13900
O2675       O  0.84030078  0.65421018  0.78304113    -0.76300
O2676       O  0.78408888  0.66144252  0.80050049    -0.79800
O2677       O  0.81734202  0.80614652  0.81323264    -0.80500
C2678       C  0.80489937  0.65085380  0.78091687     0.94700
O2679       O  0.79629463  0.70944888  0.84859615    -0.78500
O2680       O  0.89385632  0.70185740  0.76539710    -0.83700
C2681       C  0.91613144  0.76738479  0.81313780     0.97400
C2682       C  0.88250058  0.71948080  0.74408859     1.03300
O2683       O  0.89333760  0.78406239  0.79729480    -0.79300
C2684       C  0.82272638  0.69008829  0.85894626     1.01600
Fe2685     Fe  0.72266796  0.79606207  0.68770254     1.65800
Fe2686     Fe  0.63008917  0.82107032  0.69310378     1.73200
Fe2687     Fe  0.66070804  0.73749290  0.71779703     1.54400
O2688       O  0.68421964  0.70791319  0.68540287    -0.83000
O2689       O  0.60812575  0.81320284  0.73244238    -0.81400
O2690       O  0.73784164  0.73925270  0.67940943    -0.85600
O2691       O  0.74050531  0.79034170  0.72555727    -0.80400
O2692       O  0.60832927  0.73063970  0.70115172    -0.82200
O2693       O  0.66186361  0.86046108  0.71454430    -0.84900
C2694       C  0.73721678  0.76079828  0.73926790     0.95800
C2695       C  0.71970818  0.70822221  0.68086692     1.03300
O2696       O  0.67053265  0.78422529  0.69853849    -1.13900
O2697       O  0.65065438  0.83529099  0.65272270    -0.76300
O2698       O  0.70569361  0.80431700  0.64924003    -0.79800
O2699       O  0.71133826  0.73686555  0.73632800    -0.80500
C2700       C  0.67927957  0.82364422  0.63882027     0.94700
O2701       O  0.71813864  0.85258488  0.69735454    -0.78500
O2702       O  0.59179762  0.78080124  0.67631101    -0.83700
C2703       C  0.61928890  0.79575502  0.75387174     0.97400
C2704       C  0.58563327  0.74721102  0.68517567     1.03300
O2705       O  0.63961936  0.76615624  0.75235806    -0.79300
C2706       C  0.69728658  0.86330066  0.71689008     1.01600
Fe2707     Fe  0.71172881  0.78512673  0.56004080     1.65800
Fe2708     Fe  0.68672178  0.87770604  0.55464061     1.73200
Fe2709     Fe  0.77029827  0.84708664  0.52994676     1.54400
O2710       O  0.79987746  0.82357522  0.56234113    -0.83000
O2711       O  0.69458836  0.89966895  0.51530153    -0.81400
O2712       O  0.76853832  0.76995276  0.56833355    -0.85600
O2713       O  0.71744814  0.76729042  0.52218595    -0.80400
O2714       O  0.77715243  0.89946580  0.54659159    -0.82200
O2715       O  0.64732982  0.84593219  0.53320074    -0.84900
C2716       C  0.74699285  0.77057837  0.00847563     0.95800
C2717       C  0.79956867  0.78808663  0.56687700     1.03300
O2718       O  0.72356603  0.83726222  0.54920544    -1.13900
O2719       O  0.67250273  0.85714066  0.59502211    -0.76300
O2720       O  0.70347476  0.80210011  0.59850341    -0.79800
O2721       O  0.77092521  0.79645603  0.01141599    -0.80500
C2722       C  0.68414906  0.82851463  0.60892391     0.94700
O2723       O  0.65520589  0.78965646  0.55038918    -0.78500
O2724       O  0.72699141  0.91599795  0.57143260    -0.83700
C2725       C  0.71203660  0.88850633  0.49387208     0.97400
C2726       C  0.76058150  0.92216224  0.56256759     1.03300
O2727       O  0.74163517  0.86817553  0.49538573    -0.79300
C2728       C  0.64448991  0.81050933  0.53085421     1.01600
Fe2729     Fe  0.52932109  0.79648062  0.93750126     1.65800
Fe2730     Fe  0.62197991  0.82096767  0.94302256     1.73200
Fe2731     Fe  0.59098178  0.73722146  0.96714102     1.54400
O2732       O  0.54032533  0.73663187  0.98566799    -0.83000
O2733       O  0.66013581  0.78074596  0.92598614    -0.81400
O2734       O  0.51162820  0.79054208  0.97536167    -0.85600
O2735       O  0.51378460  0.73981866  0.92899321    -0.80400
O2736       O  0.61214124  0.76535025  0.50191658    -0.82200
O2737       O  0.60144071  0.83572857  0.90271157    -0.84900
C2738       C  0.53180226  0.70870347  0.93019536     0.95800
C2739       C  0.51467863  0.76076285  0.48883865     1.03300
O2740       O  0.58139845  0.78425199  0.94821621    -1.13900
O2741       O  0.59029963  0.86018426  0.96470354    -0.76300
O2742       O  0.53408868  0.85295543  0.94724219    -0.79800
O2743       O  0.56733640  0.70824973  0.93451328    -0.80500
C2744       C  0.55489826  0.86354335  0.96682619     0.94700
O2745       O  0.54629366  0.80494614  0.89914935    -0.78500
O2746       O  0.64385232  0.81253275  0.98235004    -0.83700
C2747       C  0.66612487  0.74700256  0.93460872     0.97400
C2748       C  0.63249532  0.79491066  0.00365865     1.03300
O2749       O  0.64333141  0.73032659  0.95045252    -0.79300
C2750       C  0.57272598  0.82430575  0.88879978     1.01600
Fe2751     Fe  0.53988183  0.78591811  0.81024589     1.65800
Fe2752     Fe  0.56436832  0.87857805  0.80472395     1.73200
Fe2753     Fe  0.98062295  0.84757859  0.78060478     1.54400
O2754       O  0.98003354  0.79692226  0.76207846    -0.83000
O2755       O  0.52414583  0.91673456  0.82175878    -0.81400
O2756       O  0.53394202  0.76822281  0.77238610    -0.85600
O2757       O  0.98321956  0.77038109  0.81875448    -0.80400
O2758       O  0.50875189  0.86873905  0.74582895    -0.82200
O2759       O  0.57912763  0.85804055  0.84503554    -0.84900
C2760       C  0.95210416  0.78839851  0.81755088     0.95800
C2761       C  0.00416445  0.77127315  0.75890930     1.03300
O2762       O  0.52765328  0.83799559  0.79953001    -1.13900
O2763       O  0.60358699  0.84689832  0.78304464    -0.76300
O2764       O  0.59635641  0.79068607  0.80050362    -0.79800
O2765       O  0.95165080  0.82393264  0.81323251    -0.80500
C2766       C  0.60694427  0.81149696  0.78092022     0.94700
O2767       O  0.54834826  0.80289175  0.84859762    -0.78500
O2768       O  0.55593538  0.90044885  0.76539552    -0.83700
C2769       C  0.99040275  0.92272318  0.81313551     0.97400
C2770       C  0.53831268  0.88909307  0.74408680     1.03300
O2771       O  0.97372706  0.89992853  0.79729249    -0.79300
C2772       C  0.56770631  0.82932518  0.85894725     1.01600
Fe2773     Fe  0.96173466  0.72926316  0.68770778     1.65800
Fe2774     Fe  0.93672537  0.63668626  0.69310236     1.73200
Fe2775     Fe  0.52030447  0.66729834  0.71779676     1.54400
O2776       O  0.54988652  0.69081467  0.68540526    -0.83000
O2777       O  0.94459357  0.61471669  0.73243888    -0.81400
O2778       O  0.51854375  0.74443708  0.67941634    -0.85600
O2779       O  0.96745477  0.74709064  0.72556502    -0.80400
O2780       O  0.52715394  0.61492116  0.70114777    -0.82200
O2781       O  0.89733631  0.66845933  0.71454659    -0.84900
C2782       C  0.49700102  0.74380350  0.73927298     0.95800
C2783       C  0.54957529  0.72630409  0.68087143     1.03300
O2784       O  0.97357207  0.67712664  0.69853876    -1.13900
O2785       O  0.92250491  0.65725807  0.65272303    -0.76300
O2786       O  0.95348101  0.71229558  0.64924318    -0.79800
O2787       O  0.52093472  0.71792596  0.73633100    -0.80500
C2788       C  0.93415341  0.68588342  0.63882190     0.94700
O2789       O  0.90521128  0.72473467  0.69735827    -0.78500
O2790       O  0.97699185  0.59839472  0.67630619    -0.83700
C2791       C  0.96203986  0.62587928  0.75386885     0.97400
C2792       C  0.51058144  0.59222738  0.68517097     1.03300
O2793       O  0.99163915  0.64620820  0.75235620    -0.79300
C2794       C  0.89449521  0.70388203  0.71689309     1.01600
Fe2795     Fe  0.97266563  0.71833710  0.56004113     1.65800
Fe2796     Fe  0.88008854  0.69332641  0.55464369     1.73200
Fe2797     Fe  0.91070096  0.77690451  0.52994855     1.54400
O2798       O  0.93421544  0.80648826  0.56234007    -0.83000
O2799       O  0.85812005  0.70119325  0.51530654    -0.81400
O2800       O  0.98783758  0.77514656  0.56833386    -0.85600
O2801       O  0.99049807  0.72405779  0.52218565    -0.80400
O2802       O  0.85832258  0.78375430  0.54659634    -0.82200
O2803       O  0.91186305  0.65393761  0.53320047    -0.84900
C2804       C  0.98720815  0.75360330  0.00847517     0.95800
C2805       C  0.96970438  0.80617780  0.56687589     1.03300
O2806       O  0.92052927  0.73017329  0.54920796    -1.13900
O2807       O  0.90065800  0.67910644  0.59502379    -0.76300
O2808       O  0.95569516  0.71008250  0.59850500    -0.79800
O2809       O  0.96132969  0.77753423  0.01141541    -0.80500
C2810       C  0.92928260  0.69075491  0.60892563     0.94700
O2811       O  0.96813895  0.66181386  0.55038789    -0.78500
O2812       O  0.84179575  0.73359277  0.57143842    -0.83700
C2813       C  0.86928221  0.71863921  0.49387630     0.97400
C2814       C  0.83562825  0.76718200  0.56257295     1.03300
O2815       O  0.88961218  0.74823790  0.49538882    -0.79300
C2816       C  0.94728579  0.65109756  0.53085320     1.01600
loop_ 
_geom_bond_atom_site_label_1 
_geom_bond_atom_site_label_2 
_geom_bond_distance 
_geom_bond_site_symmetry_2 
_ccdc_geom_bond_type 
Fe1          O17   1.988       .  S
Fe1          O14   2.065       .  S
Fe1           O6   1.962       .  S
Fe1        O1415   2.124       .  S
Fe1          O12   1.967       .  S
Fe2           O5   2.134       .  S
Fe2           O9   2.162       .  S
Fe2          O13   2.077       .  S
Fe2          O18   2.091       .  S
Fe2          O12   1.957       .  S
Fe3          O21   2.041       .  S
Fe3          O15   2.072       .  S
Fe3        O1768   2.106   1_455  S
Fe3         O356   2.011       .  S
Fe3        O1420   1.936   1_455  S
O4         Fe355   2.011       .  S
O4           C11   1.258   1_455  A
O5         C1427   1.286       .  A
O6         C1771   1.248       .  A
O7        Fe1409   2.124   1_455  S
O7           C10   1.276       .  A
O8        Fe1763   2.106   1_554  S
O8          C372   1.275       .  A
O9           C22   1.289       .  A
C10          O15   1.277       .  A
C10         C107   1.492       .  S
C11        O1766   1.248       .  A
C11        C2518   1.390   1_646  S
O12       Fe1411   1.936       .  S
O13          C16   1.265       .  A
O14          C16   1.264       .  A
C16         C503   1.498       .  S
O17          C22   1.267       .  A
O18          C20   1.278       .  A
C19          O21   1.265       .  A
C19        O1413   1.286   1_455  A
C19         C274   1.492       .  S
C20         O360   1.275       .  A
C20         C704   1.499       .  S
C22          C44   1.478       .  S
Fe23         O39   1.988       .  S
Fe23         O36   2.065       .  S
Fe23         O28   1.962       .  S
Fe23        O733   2.124   1_545  S
Fe23         O34   1.967       .  S
Fe24         O27   2.134       .  S
Fe24         O31   2.162       .  S
Fe24         O35   2.077       .  S
Fe24         O40   2.091       .  S
Fe24         O34   1.957       .  S
Fe25         O43   2.041       .  S
Fe25         O37   2.072       .  S
Fe25         O26   2.011       .  S
Fe25        O734   2.106       .  S
Fe25        O738   1.936       .  S
O26         C737   1.258       .  A
O27         C745   1.286   1_545  A
O28          C33   1.248       .  A
O29        Fe727   2.124       .  S
O29          C32   1.276       .  A
O30        Fe729   2.106   1_545  S
O30          C42   1.275       .  A
O31          C44   1.289       .  A
C32          O37   1.277       .  A
C32         C305   1.492       .  S
C33         O730   1.258   1_545  A
C33        C1484   1.390       .  S
O34        Fe729   1.936   1_545  S
O35          C38   1.265       .  A
O36          C38   1.264       .  A
C38         C327   1.498       .  S
O39          C44   1.267       .  A
O40          C42   1.278       .  A
C41          O43   1.265       .  A
C41         O731   1.286       .  A
C41         C120   1.492       .  S
C42         C176   1.499       .  S
Fe45         O61   2.065       .  S
Fe45         O51   1.963       .  S
Fe45         O58   1.992       .  S
Fe45       O1458   2.123   1_455  S
Fe45         O56   1.968       .  S
Fe46         O49   2.090       .  S
Fe46         O53   2.077       .  S
Fe46         O57   2.160       .  S
Fe46         O62   2.134       .  S
Fe46         O56   1.957       .  S
Fe47         O52   2.041       .  S
Fe47         O48   2.072       .  S
Fe47       O1473   2.106   1_554  S
Fe47        O411   2.010       .  S
Fe47       O1464   1.936       .  S
O48          C55   1.277       .  A
O49          C63   1.278   1_554  A
O50       Fe1453   2.123       .  S
O50          C55   1.276       .  A
O51        C1814   1.248       .  A
O52          C64   1.265       .  A
O53          C66   1.265       .  A
C54          O59   1.258       .  A
C54        O1811   1.248       .  A
C54        C2475   1.390       .  S
C55         C152   1.492       .  S
O56       Fe1455   1.936   1_455  S
O57          C60   1.289       .  A
O58          C60   1.267       .  A
O59        Fe399   2.010       .  S
C60          C82   1.479       .  S
O61          C66   1.265       .  A
O62        C1472   1.286   1_455  A
C63          O65   1.275       .  A
C63         C632   1.498       .  S
C64        O1470   1.286       .  A
C64         C341   1.492       .  S
O65       Fe1455   2.106   1_456  S
C66         C460   1.499       .  S
Fe67         O83   2.065       .  S
Fe67         O80   1.992       .  S
Fe67        O777   1.963       .  S
Fe67        O776   2.123       .  S
Fe67         O78   1.968       .  S
Fe68         O71   2.090       .  S
Fe68         O75   2.077       .  S
Fe68         O79   2.160       .  S
Fe68         O84   2.134       .  S
Fe68         O78   1.957       .  S
Fe69         O87   2.106   1_545  S
Fe69         O74   2.041       .  S
Fe69         O81   2.010       .  S
Fe69         O70   2.072       .  S
Fe69        O782   1.936   1_545  S
O70          C77   1.277       .  A
O71          C85   1.278       .  A
O72        Fe771   2.123   1_545  S
O72          C77   1.276       .  A
O73        Fe771   1.963       .  S
O73          C76   1.248   1_565  A
O74          C86   1.265       .  A
O75          C88   1.265       .  A
C76          O81   1.258       .  A
C76        C1441   1.390   1_455  S
C77         C328   1.492       .  S
O78        Fe773   1.936       .  S
O79          C82   1.289       .  A
O80          C82   1.267       .  A
O83          C88   1.265       .  A
O84         C790   1.286       .  A
C85         O791   1.275       .  A
C85         C126   1.498       .  S
C86         O788   1.286   1_545  A
C86         C165   1.492       .  S
O87         C789   1.275       .  A
C88         C306   1.499       .  S
Fe89        O105   1.988       .  S
Fe89        O102   2.065       .  S
Fe89         O94   1.962       .  S
Fe89        O799   2.124       .  S
Fe89        O100   1.967       .  S
Fe90         O93   2.134       .  S
Fe90         O97   2.162       .  S
Fe90        O101   2.077       .  S
Fe90        O106   2.091       .  S
Fe90        O100   1.957       .  S
Fe91        O109   2.041       .  S
Fe91        O103   2.072       .  S
Fe91        O448   2.106   1_545  S
Fe91        O444   2.011       .  S
Fe91        O804   1.936   1_545  S
O92        Fe443   2.011       .  S
O92          C99   1.258       .  A
O93         C811   1.286       .  A
O94        C1155   1.248       .  A
O95        Fe793   2.124   1_545  S
O95          C98   1.276       .  A
O96        Fe443   2.106   1_564  S
O96        C1164   1.275       .  A
O97         C110   1.289       .  A
C98         O103   1.277       .  A
C98         C195   1.492       .  S
C99        O1150   1.248   1_545  A
C99         C494   1.390   1_556  S
O100       Fe795   1.936       .  S
O101        C104   1.265       .  A
O102        C104   1.264       .  A
C104        C613   1.498       .  S
O105        C110   1.267       .  A
O106        C108   1.278       .  A
C107        O109   1.265       .  A
C107        O797   1.286   1_545  A
C108       O1152   1.275       .  A
C108        C418   1.499       .  S
C110        C132   1.478       .  S
Fe111       O127   1.988       .  S
Fe111       O117   2.124       .  S
Fe111       O124   2.065       .  S
Fe111       O116   1.962       .  S
Fe111       O122   1.967       .  S
Fe112       O115   2.134       .  S
Fe112       O119   2.162       .  S
Fe112       O123   2.077       .  S
Fe112       O128   2.091       .  S
Fe112       O122   1.957       .  S
Fe113       O131   2.041       .  S
Fe113       O118   2.106       .  S
Fe113       O125   2.072       .  S
Fe113       O114   2.011       .  S
Fe113       O122   1.936       .  S
O114        C121   1.258       .  A
O115        C129   1.286       .  A
O116        C121   1.248       .  A
O117        C120   1.276       .  A
O118        C130   1.275       .  A
O119        C132   1.289       .  A
C120        O125   1.277       .  A
C121        C868   1.390       .  S
O123        C126   1.265       .  A
O124        C126   1.264       .  A
O127        C132   1.267       .  A
O128        C130   1.278       .  A
C129        O131   1.265       .  A
C129        C208   1.492       .  S
C130        C242   1.499       .  S
Fe133       O149   2.065       .  S
Fe133       O139   1.963       .  S
Fe133       O146   1.992       .  S
Fe133       O842   2.123   1_545  S
Fe133       O144   1.968       .  S
Fe134       O137   2.090       .  S
Fe134       O141   2.077       .  S
Fe134       O145   2.160       .  S
Fe134       O150   2.133       .  S
Fe134       O144   1.958       .  S
Fe135       O140   2.041       .  S
Fe135       O136   2.072       .  S
Fe135       O857   2.106   1_554  S
Fe135       O499   2.010       .  S
Fe135       O848   1.936       .  S
O136        C143   1.277       .  A
O137        C151   1.278   1_554  A
O138       Fe837   2.123       .  S
O138        C143   1.276       .  A
O139        C494   1.248       .  A
O140        C152   1.265       .  A
O141        C154   1.265       .  A
C142        O491   1.248       .  A
C142        O851   1.258   1_545  A
C142        C451   1.390       .  S
C143        C262   1.492       .  S
O144       Fe839   1.936   1_545  S
O145        C148   1.289       .  A
O146        C148   1.267       .  A
O147       Fe487   2.010       .  S
O147        C846   1.258       .  A
C148        C170   1.479       .  S
O149        C154   1.265       .  A
O150        C856   1.286   1_545  A
C151        O153   1.275       .  A
C151        C368   1.498       .  S
C152        O854   1.286       .  A
O153       Fe839   2.106   1_546  S
C154        C548   1.499       .  S
Fe155       O171   2.065       .  S
Fe155       O161   1.963       .  S
Fe155       O168   1.992       .  S
Fe155       O160   2.123       .  S
Fe155       O166   1.968       .  S
Fe156       O159   2.090       .  S
Fe156       O163   2.077       .  S
Fe156       O167   2.160       .  S
Fe156       O172   2.133       .  S
Fe156       O166   1.958       .  S
Fe157       O175   2.106       .  S
Fe157       O162   2.041       .  S
Fe157       O169   2.010       .  S
Fe157       O158   2.072       .  S
Fe157       O166   1.936       .  S
O158        C165   1.277       .  A
O159        C173   1.278       .  A
O160        C165   1.276       .  A
O161        C164   1.248       .  A
O162        C174   1.265       .  A
O163        C176   1.265       .  A
C164        O169   1.258       .  A
C164        C825   1.390   1_545  S
O167        C170   1.289       .  A
O168        C170   1.267       .  A
O171        C176   1.265       .  A
O172        C174   1.286       .  A
C173        O175   1.275       .  A
C173        C214   1.498       .  S
C174        C231   1.492       .  S
Fe177       O193   1.988       .  S
Fe177       O183   2.124       .  S
Fe177       O190   2.065       .  S
Fe177       O182   1.962       .  S
Fe177       O188   1.967       .  S
Fe178       O181   2.134       .  S
Fe178       O185   2.162       .  S
Fe178       O189   2.077       .  S
Fe178       O194   2.091       .  S
Fe178       O188   1.957       .  S
Fe179       O197   2.041       .  S
Fe179       O191   2.072       .  S
Fe179       O536   2.106       .  S
Fe179       O532   2.011       .  S
Fe179       O188   1.936       .  S
O180       Fe531   2.011       .  S
O180        C187   1.258       .  A
O181        C195   1.286       .  A
O182        C539   1.248       .  A
O183        C186   1.276       .  A
O184       Fe531   2.106   1_554  S
O184        C548   1.275       .  A
O185        C198   1.289       .  A
C186        O191   1.277       .  A
C186        C283   1.492       .  S
C187        O534   1.248       .  A
C187        C604   1.390   1_556  S
O189        C192   1.265       .  A
O190        C192   1.264       .  A
C192        C701   1.498       .  S
O193        C198   1.267       .  A
O194        C196   1.278       .  A
C195        O197   1.265       .  A
C196        O536   1.275       .  A
C196        C506   1.499       .  S
C198        C220   1.478       .  S
Fe199       O215   1.988       .  S
Fe199       O205   2.124       .  S
Fe199       O212   2.065       .  S
Fe199       O204   1.962       .  S
Fe199       O210   1.967       .  S
Fe200       O203   2.134       .  S
Fe200       O207   2.162       .  S
Fe200       O211   2.077       .  S
Fe200       O216   2.091       .  S
Fe200       O210   1.957       .  S
Fe201       O219   2.041       .  S
Fe201       O206   2.106       .  S
Fe201       O213   2.072       .  S
Fe201       O202   2.011       .  S
Fe201       O210   1.936       .  S
O202        C209   1.258       .  A
O203        C217   1.286       .  A
O204        C209   1.248       .  A
O205        C208   1.276       .  A
O206        C218   1.275       .  A
O207        C220   1.289       .  A
C208        O213   1.277       .  A
C209        C230   1.390       .  S
O211        C214   1.265       .  A
O212        C214   1.264       .  A
O215        C220   1.267       .  A
O216        C218   1.278       .  A
C217        O219   1.265       .  A
C217        C296   1.492       .  S
C218        C330   1.499       .  S
Fe221       O237   2.065       .  S
Fe221       O227   1.963       .  S
Fe221       O234   1.992       .  S
Fe221       O226   2.123       .  S
Fe221       O232   1.968       .  S
Fe222       O225   2.090       .  S
Fe222       O229   2.077       .  S
Fe222       O233   2.161       .  S
Fe222       O238   2.134       .  S
Fe222       O232   1.958       .  S
Fe223       O241   2.106       .  S
Fe223       O228   2.041       .  S
Fe223       O235   2.010       .  S
Fe223       O224   2.072       .  S
Fe223       O232   1.936       .  S
O224        C231   1.277       .  A
O225        C239   1.278       .  A
O226        C231   1.276       .  A
O227        C230   1.248       .  A
O228        C240   1.265       .  A
O229        C242   1.265       .  A
C230        O235   1.258       .  A
O233        C236   1.289       .  A
O234        C236   1.267       .  A
C236        C258   1.479       .  S
O237        C242   1.265       .  A
O238        C240   1.286       .  A
C239        O241   1.275       .  A
C239        C302   1.498       .  S
C240        C319   1.492       .  S
Fe243       O259   2.065       .  S
Fe243       O249   1.963       .  S
Fe243       O256   1.992       .  S
Fe243       O248   2.123       .  S
Fe243       O254   1.968       .  S
Fe244       O247   2.090       .  S
Fe244       O251   2.077       .  S
Fe244       O255   2.161       .  S
Fe244       O260   2.134       .  S
Fe244       O254   1.957       .  S
Fe245       O263   2.106   1_554  S
Fe245       O250   2.041       .  S
Fe245       O246   2.072       .  S
Fe245       O609   2.010       .  S
Fe245       O254   1.936       .  S
O246        C253   1.277       .  A
O247        C261   1.278   1_554  A
O248        C253   1.276       .  A
O249        C604   1.248       .  A
O250        C262   1.265       .  A
O251        C264   1.265       .  A
C252        O257   1.258       .  A
C252        O601   1.248       .  A
C252        C539   1.390       .  S
C253        C350   1.492       .  S
O255        C258   1.289       .  A
O256        C258   1.267       .  A
O257       Fe597   2.010       .  S
O259        C264   1.265       .  A
O260        C262   1.286       .  A
C261        O263   1.275       .  A
C261        C456   1.498       .  S
C264        C636   1.499       .  S
Fe265       O281   1.988       .  S
Fe265       O271   2.124       .  S
Fe265       O278   2.065       .  S
Fe265       O270   1.962       .  S
Fe265       O276   1.967       .  S
Fe266       O269   2.134       .  S
Fe266       O273   2.162       .  S
Fe266       O277   2.077       .  S
Fe266       O282   2.091       .  S
Fe266       O276   1.957       .  S
Fe267       O285   2.041       .  S
Fe267       O279   2.072       .  S
Fe267       O268   2.011       .  S
Fe267       O624   2.106       .  S
Fe267       O276   1.936       .  S
O268        C627   1.258       .  A
O269        C283   1.286       .  A
O270        C627   1.248       .  A
O271        C274   1.276       .  A
O272       Fe619   2.106   1_554  S
O272        C636   1.275       .  A
O273        C286   1.289       .  A
C274        O279   1.277       .  A
C275        O620   1.258       .  A
C275        O622   1.248       .  A
C275       C2100   1.390   1_456  S
O277        C280   1.265       .  A
O278        C280   1.264       .  A
C280        C415   1.498       .  S
O281        C286   1.267       .  A
O282        C284   1.278       .  A
C283        O285   1.265       .  A
C284        O624   1.275       .  A
C284        C616   1.499       .  S
C286        C308   1.478       .  S
Fe287       O303   1.988       .  S
Fe287       O300   2.065       .  S
Fe287       O292   1.962       .  S
Fe287      O1701   2.124   1_455  S
Fe287       O298   1.967       .  S
Fe288       O291   2.134       .  S
Fe288       O295   2.162       .  S
Fe288       O299   2.077       .  S
Fe288       O304   2.091       .  S
Fe288       O298   1.957       .  S
Fe289       O307   2.041       .  S
Fe289       O301   2.072       .  S
Fe289       O290   2.011       .  S
Fe289      O1702   2.106       .  S
Fe289      O1706   1.936       .  S
O290        C297   1.258       .  A
O291       C1713   1.286   1_455  A
O292       C1705   1.248       .  A
O293      Fe1695   2.124       .  S
O293        C296   1.276       .  A
O294      Fe1697   2.106   1_455  S
O294        C306   1.275       .  A
O295        C308   1.289       .  A
C296        O301   1.277       .  A
C297       O1700   1.248       .  A
C297       C1726   1.390       .  S
O298      Fe1697   1.936   1_455  S
O299        C302   1.265       .  A
O300        C302   1.264       .  A
O303        C308   1.267       .  A
O304        C306   1.278       .  A
C305        O307   1.265       .  A
C305       O1699   1.286       .  A
Fe309       O325   2.065       .  S
Fe309       O315   1.963       .  S
Fe309       O322   1.992       .  S
Fe309      O1722   2.123       .  S
Fe309       O320   1.968       .  S
Fe310       O313   2.090       .  S
Fe310       O317   2.077       .  S
Fe310       O321   2.161       .  S
Fe310       O326   2.133       .  S
Fe310       O320   1.958       .  S
Fe311       O316   2.041       .  S
Fe311       O323   2.010       .  S
Fe311       O312   2.072       .  S
Fe311      O1737   2.106   1_455  S
Fe311      O1728   1.936   1_455  S
O312        C319   1.277       .  A
O313        C327   1.278       .  A
O314      Fe1717   2.123   1_455  S
O314        C319   1.276       .  A
O315       C1726   1.248       .  A
O316        C328   1.265       .  A
O317        C330   1.265       .  A
C318        O323   1.258   1_655  A
C318       O1723   1.248       .  A
C318       C1705   1.390   1_655  S
O320      Fe1719   1.936       .  S
O321        C324   1.289       .  A
O322        C324   1.267       .  A
C324        C346   1.479       .  S
O325        C330   1.265       .  A
O326       C1736   1.286       .  A
C327        O329   1.275       .  A
C328       O1734   1.286   1_455  A
O329      Fe1719   2.106       .  S
Fe331       O347   2.065       .  S
Fe331       O337   1.963       .  S
Fe331       O344   1.992       .  S
Fe331       O336   2.123       .  S
Fe331       O342   1.968       .  S
Fe332       O335   2.090       .  S
Fe332       O339   2.077       .  S
Fe332       O343   2.161       .  S
Fe332       O348   2.133       .  S
Fe332       O342   1.958       .  S
Fe333       O351   2.106   1_554  S
Fe333       O338   2.041       .  S
Fe333       O334   2.072       .  S
Fe333       O697   2.010       .  S
Fe333       O342   1.936       .  S
O334        C341   1.277       .  A
O335        C349   1.278   1_554  A
O336        C341   1.276       .  A
O337        C692   1.248       .  A
O338        C350   1.265       .  A
O339        C352   1.265       .  A
C340        O345   1.258       .  A
C340        O689   1.248       .  A
C340       C2035   1.390       .  S
O343        C346   1.289       .  A
O344        C346   1.267       .  A
O345       Fe685   2.010       .  S
O347        C352   1.265       .  A
O348        C350   1.286       .  A
C349        O351   1.275       .  A
C349        C544   1.498       .  S
C352        C372   1.499       .  S
Fe353       O369   1.988       .  S
Fe353      O1767   2.124       .  S
Fe353       O366   2.065       .  S
Fe353       O358   1.962       .  S
Fe353       O364   1.967       .  S
Fe354       O357   2.134       .  S
Fe354       O361   2.162       .  S
Fe354       O365   2.077       .  S
Fe354       O370   2.091       .  S
Fe354       O364   1.957       .  S
Fe355       O373   2.041       .  S
Fe355      O1416   2.106   1_456  S
Fe355       O367   2.072       .  S
Fe355      O1772   1.936   1_455  S
O356        C363   1.258   1_455  A
O357       C1779   1.286       .  A
O358       C1419   1.248       .  A
O359      Fe1761   2.124   1_455  S
O359        C362   1.276       .  A
O360      Fe1411   2.106       .  S
O361        C374   1.289       .  A
C362        O367   1.277       .  A
C362        C459   1.492       .  S
C363       O1414   1.248       .  A
C363       C2166   1.390   1_645  S
O364      Fe1763   1.936       .  S
O365        C368   1.265       .  A
O366        C368   1.264       .  A
O369        C374   1.267       .  A
O370        C372   1.278   1_556  A
C371       O1765   1.286   1_455  A
C371        O373   1.265       .  A
C371        C626   1.492       .  S
C374        C396   1.478       .  S
Fe375       O391   1.988       .  S
Fe375      O1085   2.124   1_545  S
Fe375       O388   2.065       .  S
Fe375       O380   1.962       .  S
Fe375       O386   1.967       .  S
Fe376       O379   2.134       .  S
Fe376       O383   2.162       .  S
Fe376       O387   2.077       .  S
Fe376       O392   2.091       .  S
Fe376       O386   1.957       .  S
Fe377       O395   2.041       .  S
Fe377      O1086   2.106       .  S
Fe377       O389   2.072       .  S
Fe377       O378   2.011       .  S
Fe377      O1090   1.936       .  S
O378       C1089   1.258       .  A
O379       C1097   1.286   1_545  A
O380        C385   1.248       .  A
O381      Fe1079   2.124       .  S
O381        C384   1.276       .  A
O382      Fe1081   2.106   1_545  S
O382        C394   1.275       .  A
O383        C396   1.289       .  A
C384        O389   1.277       .  A
C384        C657   1.492       .  S
C385       O1082   1.258   1_545  A
C385       C1836   1.390       .  S
O386      Fe1081   1.936   1_545  S
O387        C390   1.265       .  A
O388        C390   1.264       .  A
C390        C679   1.498       .  S
O391        C396   1.267       .  A
O392        C394   1.278       .  A
C393       O1083   1.286       .  A
C393        O395   1.265       .  A
C393        C472   1.492       .  S
C394        C528   1.499       .  S
Fe397       O413   2.065       .  S
Fe397       O403   1.963       .  S
Fe397       O410   1.992       .  S
Fe397      O1810   2.123   1_455  S
Fe397       O408   1.968       .  S
Fe398       O401   2.090       .  S
Fe398       O405   2.077       .  S
Fe398       O409   2.160       .  S
Fe398       O414   2.134       .  S
Fe398       O408   1.957       .  S
Fe399      O1825   2.106       .  S
Fe399       O404   2.041       .  S
Fe399       O400   2.072       .  S
Fe399      O1816   1.936       .  S
O400        C407   1.277       .  A
O401        C415   1.278       .  A
O402      Fe1805   2.123       .  S
O402        C407   1.276       .  A
O403       C1462   1.248       .  A
O404        C416   1.265       .  A
O405        C418   1.265       .  A
C406       O1459   1.248       .  A
C406        O411   1.258       .  A
C406       C2123   1.390   1_554  S
C407        C504   1.492       .  S
O408      Fe1807   1.936   1_455  S
O409        C412   1.289       .  A
O410        C412   1.267       .  A
C412        C434   1.479       .  S
O413        C418   1.265       .  A
O414       C1824   1.286   1_455  A
C415        O417   1.275       .  A
C416       O1822   1.286       .  A
C416        C693   1.492       .  S
O417      Fe1807   2.106   1_455  S
Fe419       O435   2.065       .  S
Fe419      O1129   1.963       .  S
Fe419       O432   1.992       .  S
Fe419      O1128   2.123       .  S
Fe419       O430   1.968       .  S
Fe420       O423   2.090       .  S
Fe420       O427   2.077       .  S
Fe420       O431   2.160       .  S
Fe420       O436   2.134       .  S
Fe420       O430   1.957       .  S
Fe421       O439   2.106   1_545  S
Fe421       O426   2.041       .  S
Fe421       O433   2.010       .  S
Fe421       O422   2.072       .  S
Fe421      O1134   1.936   1_545  S
O422        C429   1.277       .  A
O423        C437   1.278       .  A
O424      Fe1123   2.123   1_545  S
O424        C429   1.276       .  A
O425      Fe1123   1.963       .  S
O425        C428   1.248   1_565  A
O426        C438   1.265       .  A
O427        C440   1.265       .  A
C428        O433   1.258       .  A
C428       C1793   1.390   1_455  S
C429        C680   1.492       .  S
O430      Fe1125   1.936       .  S
O431        C434   1.289       .  A
O432        C434   1.267       .  A
O435        C440   1.265       .  A
O436       C1142   1.286       .  A
C437       O1143   1.275       .  A
C437        C478   1.498       .  S
C438       O1140   1.286   1_545  A
C438        C517   1.492       .  S
O439       C1141   1.275       .  A
C440        C658   1.499       .  S
Fe441       O457   1.988       .  S
Fe441      O1151   2.124       .  S
Fe441       O454   2.065       .  S
Fe441       O446   1.962       .  S
Fe441       O452   1.967       .  S
Fe442       O445   2.134       .  S
Fe442       O449   2.162       .  S
Fe442       O453   2.077       .  S
Fe442       O458   2.091       .  S
Fe442       O452   1.957       .  S
Fe443       O461   2.041       .  S
Fe443       O455   2.072       .  S
Fe443      O1156   1.936   1_545  S
O444        C451   1.258       .  A
O445       C1163   1.286       .  A
O446        C803   1.248       .  A
O447      Fe1145   2.124   1_545  S
O447        C450   1.276       .  A
O448        C812   1.275       .  A
O449        C462   1.289       .  A
C450        O455   1.277       .  A
C450        C547   1.492       .  S
C451        O798   1.248   1_545  A
O452      Fe1147   1.936       .  S
O453        C456   1.265       .  A
O454        C456   1.264       .  A
O457        C462   1.267       .  A
O458        C460   1.278   1_556  A
C459       O1149   1.286   1_545  A
C459        O461   1.265       .  A
C460        O800   1.275       .  A
C462        C484   1.478       .  S
Fe463       O479   1.988       .  S
Fe463       O469   2.124       .  S
Fe463       O476   2.065       .  S
Fe463       O468   1.962       .  S
Fe463       O474   1.967       .  S
Fe464       O467   2.134       .  S
Fe464       O471   2.162       .  S
Fe464       O475   2.077       .  S
Fe464       O480   2.091       .  S
Fe464       O474   1.957       .  S
Fe465       O483   2.041       .  S
Fe465       O470   2.106       .  S
Fe465       O477   2.072       .  S
Fe465       O466   2.011       .  S
Fe465       O474   1.936       .  S
O466        C473   1.258       .  A
O467        C481   1.286       .  A
O468        C473   1.248       .  A
O469        C472   1.276       .  A
O470        C482   1.275       .  A
O471        C484   1.289       .  A
C472        O477   1.277       .  A
C473       C1220   1.390       .  S
O475        C478   1.265       .  A
O476        C478   1.264       .  A
O479        C484   1.267       .  A
O480        C482   1.278       .  A
C481        O483   1.265       .  A
C481        C560   1.492       .  S
C482        C594   1.499       .  S
Fe485       O501   2.065       .  S
Fe485       O491   1.963       .  S
Fe485       O498   1.992       .  S
Fe485      O1194   2.123   1_545  S
Fe485       O496   1.968       .  S
Fe486       O489   2.090       .  S
Fe486       O493   2.077       .  S
Fe486       O497   2.160       .  S
Fe486       O502   2.133       .  S
Fe486       O496   1.958       .  S
Fe487      O1209   2.106       .  S
Fe487       O492   2.041       .  S
Fe487       O488   2.072       .  S
Fe487      O1200   1.936       .  S
O488        C495   1.277       .  A
O489        C503   1.278       .  A
O490      Fe1189   2.123       .  S
O490        C495   1.276       .  A
O492        C504   1.265       .  A
O493        C506   1.265       .  A
C494       O1203   1.258   1_545  A
C495        C614   1.492       .  S
O496      Fe1191   1.936   1_545  S
O497        C500   1.289       .  A
O498        C500   1.267       .  A
O499       C1198   1.258       .  A
C500        C522   1.479       .  S
O501        C506   1.265       .  A
O502       C1208   1.286   1_545  A
C503        O505   1.275       .  A
C504       O1206   1.286       .  A
O505      Fe1191   2.106   1_545  S
Fe507       O523   2.065       .  S
Fe507       O513   1.963       .  S
Fe507       O520   1.992       .  S
Fe507       O512   2.123       .  S
Fe507       O518   1.968       .  S
Fe508       O511   2.090       .  S
Fe508       O515   2.077       .  S
Fe508       O519   2.160       .  S
Fe508       O524   2.133       .  S
Fe508       O518   1.958       .  S
Fe509       O527   2.106       .  S
Fe509       O514   2.041       .  S
Fe509       O521   2.010       .  S
Fe509       O510   2.072       .  S
Fe509       O518   1.936       .  S
O510        C517   1.277       .  A
O511        C525   1.278       .  A
O512        C517   1.276       .  A
O513        C516   1.248       .  A
O514        C526   1.265       .  A
O515        C528   1.265       .  A
C516        O521   1.258       .  A
C516       C1177   1.390   1_545  S
O519        C522   1.289       .  A
O520        C522   1.267       .  A
O523        C528   1.265       .  A
O524        C526   1.286       .  A
C525        O527   1.275       .  A
C525        C566   1.498       .  S
C526        C583   1.492       .  S
Fe529       O545   1.988       .  S
Fe529       O535   2.124       .  S
Fe529       O542   2.065       .  S
Fe529       O534   1.962       .  S
Fe529       O540   1.967       .  S
Fe530       O533   2.134       .  S
Fe530       O537   2.162       .  S
Fe530       O541   2.077       .  S
Fe530       O546   2.091       .  S
Fe530       O540   1.957       .  S
Fe531       O549   2.041       .  S
Fe531       O543   2.072       .  S
Fe531       O540   1.936       .  S
O532        C539   1.258       .  A
O533        C547   1.286       .  A
O535        C538   1.276       .  A
O537        C550   1.289       .  A
C538        O543   1.277       .  A
C538        C635   1.492       .  S
O541        C544   1.265       .  A
O542        C544   1.264       .  A
O545        C550   1.267       .  A
O546        C548   1.278   1_556  A
C547        O549   1.265       .  A
C550        C572   1.478       .  S
Fe551       O567   1.988       .  S
Fe551       O557   2.124       .  S
Fe551       O564   2.065       .  S
Fe551       O556   1.962       .  S
Fe551       O562   1.967       .  S
Fe552       O555   2.134       .  S
Fe552       O559   2.162       .  S
Fe552       O563   2.077       .  S
Fe552       O568   2.091       .  S
Fe552       O562   1.957       .  S
Fe553       O571   2.041       .  S
Fe553       O558   2.106       .  S
Fe553       O565   2.072       .  S
Fe553       O554   2.011       .  S
Fe553       O562   1.936       .  S
O554        C561   1.258       .  A
O555        C569   1.286       .  A
O556        C561   1.248       .  A
O557        C560   1.276       .  A
O558        C570   1.275       .  A
O559        C572   1.289       .  A
C560        O565   1.277       .  A
C561        C582   1.390       .  S
O563        C566   1.265       .  A
O564        C566   1.264       .  A
O567        C572   1.267       .  A
O568        C570   1.278       .  A
C569        O571   1.265       .  A
C569        C648   1.492       .  S
C570        C682   1.499       .  S
Fe573       O589   2.065       .  S
Fe573       O579   1.963       .  S
Fe573       O586   1.992       .  S
Fe573       O578   2.123       .  S
Fe573       O584   1.968       .  S
Fe574       O577   2.090       .  S
Fe574       O581   2.077       .  S
Fe574       O585   2.161       .  S
Fe574       O590   2.134       .  S
Fe574       O584   1.958       .  S
Fe575       O593   2.106       .  S
Fe575       O580   2.041       .  S
Fe575       O587   2.010       .  S
Fe575       O576   2.072       .  S
Fe575       O584   1.936       .  S
O576        C583   1.277       .  A
O577        C591   1.278       .  A
O578        C583   1.276       .  A
O579        C582   1.248       .  A
O580        C592   1.265       .  A
O581        C594   1.265       .  A
C582        O587   1.258       .  A
O585        C588   1.289       .  A
O586        C588   1.267       .  A
C588        C610   1.479       .  S
O589        C594   1.265       .  A
O590        C592   1.286       .  A
C591        O593   1.275       .  A
C591        C654   1.498       .  S
C592        C671   1.492       .  S
Fe595       O611   2.065       .  S
Fe595       O601   1.963       .  S
Fe595       O608   1.992       .  S
Fe595       O600   2.123       .  S
Fe595       O606   1.968       .  S
Fe596       O599   2.090       .  S
Fe596       O603   2.077       .  S
Fe596       O607   2.161       .  S
Fe596       O612   2.134       .  S
Fe596       O606   1.958       .  S
Fe597       O615   2.106       .  S
Fe597       O602   2.041       .  S
Fe597       O598   2.072       .  S
Fe597       O606   1.936       .  S
O598        C605   1.277       .  A
O599        C613   1.278       .  A
O600        C605   1.276       .  A
O602        C614   1.265       .  A
O603        C616   1.265       .  A
C604        O609   1.258       .  A
C605        C702   1.492       .  S
O607        C610   1.289       .  A
O608        C610   1.267       .  A
O611        C616   1.265       .  A
O612        C614   1.286       .  A
C613        O615   1.275       .  A
Fe617       O633   1.988       .  S
Fe617       O623   2.124       .  S
Fe617       O630   2.065       .  S
Fe617       O622   1.962       .  S
Fe617       O628   1.967       .  S
Fe618       O621   2.134       .  S
Fe618       O625   2.162       .  S
Fe618       O629   2.077       .  S
Fe618       O634   2.091       .  S
Fe618       O628   1.957       .  S
Fe619       O637   2.041       .  S
Fe619       O631   2.072       .  S
Fe619       O620   2.011       .  S
Fe619       O628   1.936       .  S
O621        C635   1.286       .  A
O623        C626   1.276       .  A
O625        C638   1.289       .  A
C626        O631   1.277       .  A
C627       C1748   1.390   1_455  S
O629        C632   1.265       .  A
O630        C632   1.264       .  A
O633        C638   1.267       .  A
O634        C636   1.278   1_556  A
C635        O637   1.265       .  A
C638        C660   1.478       .  S
Fe639       O655   1.988       .  S
Fe639      O2053   2.124   1_455  S
Fe639       O652   2.065       .  S
Fe639       O644   1.962       .  S
Fe639       O650   1.967       .  S
Fe640       O643   2.134       .  S
Fe640       O647   2.162       .  S
Fe640       O651   2.077       .  S
Fe640       O656   2.091       .  S
Fe640       O650   1.957       .  S
Fe641       O659   2.041       .  S
Fe641      O2054   2.106       .  S
Fe641       O653   2.072       .  S
Fe641       O642   2.011       .  S
Fe641      O2058   1.936       .  S
O642        C649   1.258       .  A
O643       C2065   1.286   1_455  A
O644       C2057   1.248       .  A
O645      Fe2047   2.124       .  S
O645        C648   1.276       .  A
O646      Fe2049   2.106   1_455  S
O646        C658   1.275       .  A
O647        C660   1.289       .  A
C648        O653   1.277       .  A
C649       O2052   1.248       .  A
C649       C2078   1.390       .  S
O650      Fe2049   1.936   1_455  S
O651        C654   1.265       .  A
O652        C654   1.264       .  A
O655        C660   1.267       .  A
O656        C658   1.278       .  A
C657       O2051   1.286       .  A
C657        O659   1.265       .  A
Fe661       O677   2.065       .  S
Fe661       O667   1.963       .  S
Fe661       O674   1.992       .  S
Fe661      O2074   2.123       .  S
Fe661       O672   1.968       .  S
Fe662       O665   2.090       .  S
Fe662       O669   2.077       .  S
Fe662       O673   2.160       .  S
Fe662       O678   2.133       .  S
Fe662       O672   1.958       .  S
Fe663      O2089   2.106   1_455  S
Fe663       O668   2.041       .  S
Fe663       O675   2.010       .  S
Fe663       O664   2.072       .  S
Fe663      O2080   1.936   1_455  S
O664        C671   1.277       .  A
O665        C679   1.278       .  A
O666      Fe2069   2.123   1_455  S
O666        C671   1.276       .  A
O667       C2078   1.248       .  A
O668        C680   1.265       .  A
O669        C682   1.265       .  A
C670       O2075   1.248       .  A
C670        O675   1.258   1_655  A
C670       C2057   1.390   1_655  S
O672      Fe2071   1.936       .  S
O673        C676   1.289       .  A
O674        C676   1.267       .  A
C676        C698   1.479       .  S
O677        C682   1.265       .  A
O678       C2088   1.286       .  A
C679        O681   1.275       .  A
C680       O2086   1.286   1_455  A
O681      Fe2071   2.106       .  S
Fe683       O699   2.065       .  S
Fe683       O689   1.963       .  S
Fe683       O696   1.992       .  S
Fe683       O688   2.123       .  S
Fe683       O694   1.968       .  S
Fe684       O687   2.090       .  S
Fe684       O691   2.077       .  S
Fe684       O695   2.161       .  S
Fe684       O700   2.133       .  S
Fe684       O694   1.958       .  S
Fe685       O703   2.106       .  S
Fe685       O690   2.041       .  S
Fe685       O686   2.072       .  S
Fe685       O694   1.936       .  S
O686        C693   1.277       .  A
O687        C701   1.278       .  A
O688        C693   1.276       .  A
O690        C702   1.265       .  A
O691        C704   1.265       .  A
C692        O697   1.258       .  A
C692       C1683   1.390   1_554  S
O695        C698   1.289       .  A
O696        C698   1.267       .  A
O699        C704   1.265       .  A
O700        C702   1.286       .  A
C701        O703   1.275       .  A
Fe705       O721   1.988       .  S
Fe705      O2119   2.124       .  S
Fe705       O718   2.065       .  S
Fe705       O710   1.962       .  S
Fe705       O716   1.967       .  S
Fe706       O709   2.134       .  S
Fe706       O713   2.162       .  S
Fe706       O717   2.077       .  S
Fe706       O722   2.091       .  S
Fe706       O716   1.957       .  S
Fe707       O725   2.041       .  S
Fe707      O2472   2.106   1_455  S
Fe707       O719   2.072       .  S
Fe707      O1060   2.011       .  S
Fe707      O2124   1.936   1_455  S
O708      Fe1059   2.011       .  S
O708        C715   1.258   1_455  A
O709       C2131   1.286       .  A
O710       C2475   1.248       .  A
O711      Fe2113   2.124   1_455  S
O711        C714   1.276       .  A
O712      Fe2467   2.106   1_554  S
O712       C1076   1.275       .  A
O713        C726   1.289       .  A
C714        O719   1.277       .  A
C714        C811   1.492       .  S
C715       O2470   1.248       .  A
C715       C1814   1.390   1_656  S
O716      Fe2115   1.936       .  S
O717        C720   1.265       .  A
O718        C720   1.264       .  A
C720       C1207   1.498       .  S
O721        C726   1.267       .  A
O722        C724   1.278       .  A
C723       O2117   1.286   1_455  A
C723        O725   1.265       .  A
C723        C978   1.492       .  S
C724       O1064   1.275       .  A
C724       C1408   1.499       .  S
C726        C748   1.478       .  S
Fe727       O743   1.988       .  S
Fe727       O740   2.065       .  S
Fe727       O732   1.962       .  S
Fe727       O738   1.967       .  S
Fe728       O731   2.134       .  S
Fe728       O735   2.162       .  S
Fe728       O739   2.077       .  S
Fe728       O744   2.091       .  S
Fe728       O738   1.957       .  S
Fe729       O747   2.041       .  S
Fe729       O741   2.072       .  S
Fe729       O730   2.011       .  S
O732        C737   1.248       .  A
O733        C736   1.276       .  A
O734        C746   1.275       .  A
O735        C748   1.289       .  A
C736        O741   1.277       .  A
C736       C1009   1.492       .  S
C737       C2188   1.390       .  S
O739        C742   1.265       .  A
O740        C742   1.264       .  A
C742       C1031   1.498       .  S
O743        C748   1.267       .  A
O744        C746   1.278       .  A
C745        O747   1.265       .  A
C745        C824   1.492       .  S
C746        C880   1.499       .  S
Fe749       O765   2.065       .  S
Fe749       O755   1.963       .  S
Fe749       O762   1.992       .  S
Fe749      O2162   2.123   1_455  S
Fe749       O760   1.968       .  S
Fe750       O753   2.090       .  S
Fe750       O757   2.077       .  S
Fe750       O761   2.160       .  S
Fe750       O766   2.134       .  S
Fe750       O760   1.957       .  S
Fe751      O2177   2.106   1_554  S
Fe751       O756   2.041       .  S
Fe751      O1115   2.010       .  S
Fe751       O752   2.072       .  S
Fe751      O2168   1.936       .  S
O752        C759   1.277       .  A
O753        C767   1.278   1_554  A
O754      Fe2157   2.123       .  S
O754        C759   1.276       .  A
O755       C2518   1.248       .  A
O756        C768   1.265       .  A
O757        C770   1.265       .  A
C758       O2515   1.248       .  A
C758        O763   1.258       .  A
C758       C1771   1.390   1_565  S
C759        C856   1.492       .  S
O760      Fe2159   1.936   1_455  S
O761        C764   1.289       .  A
O762        C764   1.267       .  A
O763      Fe1103   2.010       .  S
C764        C786   1.479       .  S
O765        C770   1.265       .  A
O766       C2176   1.286   1_455  A
C767        O769   1.275       .  A
C767       C1336   1.498       .  S
C768       O2174   1.286       .  A
C768       C1045   1.492       .  S
O769      Fe2159   2.106   1_456  S
C770       C1164   1.499       .  S
Fe771       O787   2.065       .  S
Fe771       O784   1.992       .  S
Fe771       O782   1.968       .  S
Fe772       O775   2.090       .  S
Fe772       O779   2.077       .  S
Fe772       O783   2.160       .  S
Fe772       O788   2.134       .  S
Fe772       O782   1.957       .  S
Fe773       O791   2.106       .  S
Fe773       O778   2.041       .  S
Fe773       O785   2.010       .  S
Fe773       O774   2.072       .  S
O774        C781   1.277       .  A
O775        C789   1.278       .  A
O776        C781   1.276       .  A
O777        C780   1.248       .  A
O778        C790   1.265       .  A
O779        C792   1.265       .  A
C780        O785   1.258       .  A
C780       C2145   1.390   1_455  S
C781       C1032   1.492       .  S
O783        C786   1.289       .  A
O784        C786   1.267       .  A
O787        C792   1.265       .  A
C789        C830   1.498       .  S
C790        C869   1.492       .  S
C792       C1010   1.499       .  S
Fe793       O809   1.988       .  S
Fe793       O806   2.065       .  S
Fe793       O798   1.962       .  S
Fe793       O804   1.967       .  S
Fe794       O797   2.134       .  S
Fe794       O801   2.162       .  S
Fe794       O805   2.077       .  S
Fe794       O810   2.091       .  S
Fe794       O804   1.957       .  S
Fe795       O813   2.041       .  S
Fe795      O1152   2.106       .  S
Fe795       O807   2.072       .  S
Fe795      O1148   2.011       .  S
O796      Fe1147   2.011       .  S
O796        C803   1.258       .  A
O799        C802   1.276       .  A
O800      Fe1147   2.106   1_554  S
O801        C814   1.289       .  A
C802        O807   1.277       .  A
C802        C899   1.492       .  S
C803       C1198   1.390   1_556  S
O805        C808   1.265       .  A
O806        C808   1.264       .  A
C808       C1317   1.498       .  S
O809        C814   1.267       .  A
O810        C812   1.278       .  A
C811        O813   1.265       .  A
C812       C1122   1.499       .  S
C814        C836   1.478       .  S
Fe815       O831   1.988       .  S
Fe815       O821   2.124       .  S
Fe815       O828   2.065       .  S
Fe815       O820   1.962       .  S
Fe815       O826   1.967       .  S
Fe816       O819   2.134       .  S
Fe816       O823   2.162       .  S
Fe816       O827   2.077       .  S
Fe816       O832   2.091       .  S
Fe816       O826   1.957       .  S
Fe817       O835   2.041       .  S
Fe817       O822   2.106       .  S
Fe817       O829   2.072       .  S
Fe817       O818   2.011       .  S
Fe817       O826   1.936       .  S
O818        C825   1.258       .  A
O819        C833   1.286       .  A
O820        C825   1.248       .  A
O821        C824   1.276       .  A
O822        C834   1.275       .  A
O823        C836   1.289       .  A
C824        O829   1.277       .  A
O827        C830   1.265       .  A
O828        C830   1.264       .  A
O831        C836   1.267       .  A
O832        C834   1.278       .  A
C833        O835   1.265       .  A
C833        C912   1.492       .  S
C834        C946   1.499       .  S
Fe837       O853   2.065       .  S
Fe837       O843   1.963       .  S
Fe837       O850   1.992       .  S
Fe837       O848   1.968       .  S
Fe838       O841   2.090       .  S
Fe838       O845   2.077       .  S
Fe838       O849   2.160       .  S
Fe838       O854   2.133       .  S
Fe838       O848   1.958       .  S
Fe839       O844   2.041       .  S
Fe839      O1203   2.010       .  S
Fe839       O840   2.072       .  S
O840        C847   1.277       .  A
O841        C855   1.278   1_554  A
O842        C847   1.276       .  A
O843       C1198   1.248       .  A
O844        C856   1.265       .  A
O845        C858   1.265       .  A
C846       O1195   1.248       .  A
C846       C1155   1.390       .  S
C847        C966   1.492       .  S
O849        C852   1.289       .  A
O850        C852   1.267       .  A
O851      Fe1191   2.010       .  S
C852        C874   1.479       .  S
O853        C858   1.265       .  A
C855        O857   1.275       .  A
C855       C1072   1.498       .  S
C858       C1252   1.499       .  S
Fe859       O875   2.065       .  S
Fe859       O865   1.963       .  S
Fe859       O872   1.992       .  S
Fe859       O864   2.123       .  S
Fe859       O870   1.968       .  S
Fe860       O863   2.090       .  S
Fe860       O867   2.077       .  S
Fe860       O871   2.160       .  S
Fe860       O876   2.133       .  S
Fe860       O870   1.958       .  S
Fe861       O879   2.106       .  S
Fe861       O866   2.041       .  S
Fe861       O873   2.010       .  S
Fe861       O862   2.072       .  S
Fe861       O870   1.936       .  S
O862        C869   1.277       .  A
O863        C877   1.278       .  A
O864        C869   1.276       .  A
O865        C868   1.248       .  A
O866        C878   1.265       .  A
O867        C880   1.265       .  A
C868        O873   1.258       .  A
O871        C874   1.289       .  A
O872        C874   1.267       .  A
O875        C880   1.265       .  A
O876        C878   1.286       .  A
C877        O879   1.275       .  A
C877        C918   1.498       .  S
C878        C935   1.492       .  S
Fe881       O897   1.988       .  S
Fe881       O887   2.124       .  S
Fe881       O894   2.065       .  S
Fe881       O886   1.962       .  S
Fe881       O892   1.967       .  S
Fe882       O885   2.134       .  S
Fe882       O889   2.162       .  S
Fe882       O893   2.077       .  S
Fe882       O898   2.091       .  S
Fe882       O892   1.957       .  S
Fe883       O901   2.041       .  S
Fe883      O1240   2.106       .  S
Fe883       O895   2.072       .  S
Fe883      O1236   2.011       .  S
Fe883       O892   1.936       .  S
O884      Fe1235   2.011       .  S
O884        C891   1.258       .  A
O885        C899   1.286       .  A
O886       C1243   1.248       .  A
O887        C890   1.276       .  A
O888      Fe1235   2.106   1_554  S
O888       C1252   1.275       .  A
O889        C902   1.289       .  A
C890        O895   1.277       .  A
C890        C987   1.492       .  S
C891       O1238   1.248       .  A
C891       C1308   1.390   1_556  S
O893        C896   1.265       .  A
O894        C896   1.264       .  A
C896       C1405   1.498       .  S
O897        C902   1.267       .  A
O898        C900   1.278       .  A
C899        O901   1.265       .  A
C900       O1240   1.275       .  A
C900       C1210   1.499       .  S
C902        C924   1.478       .  S
Fe903       O919   1.988       .  S
Fe903       O909   2.124       .  S
Fe903       O916   2.065       .  S
Fe903       O908   1.962       .  S
Fe903       O914   1.967       .  S
Fe904       O907   2.134       .  S
Fe904       O911   2.162       .  S
Fe904       O915   2.077       .  S
Fe904       O920   2.091       .  S
Fe904       O914   1.957       .  S
Fe905       O923   2.041       .  S
Fe905       O910   2.106       .  S
Fe905       O917   2.072       .  S
Fe905       O906   2.011       .  S
Fe905       O914   1.936       .  S
O906        C913   1.258       .  A
O907        C921   1.286       .  A
O908        C913   1.248       .  A
O909        C912   1.276       .  A
O910        C922   1.275       .  A
O911        C924   1.289       .  A
C912        O917   1.277       .  A
C913        C934   1.390       .  S
O915        C918   1.265       .  A
O916        C918   1.264       .  A
O919        C924   1.267       .  A
O920        C922   1.278       .  A
C921        O923   1.265       .  A
C921       C1000   1.492       .  S
C922       C1034   1.499       .  S
Fe925       O941   2.065       .  S
Fe925       O931   1.963       .  S
Fe925       O938   1.992       .  S
Fe925       O930   2.123       .  S
Fe925       O936   1.968       .  S
Fe926       O929   2.090       .  S
Fe926       O933   2.077       .  S
Fe926       O937   2.161       .  S
Fe926       O942   2.134       .  S
Fe926       O936   1.958       .  S
Fe927       O945   2.106       .  S
Fe927       O932   2.041       .  S
Fe927       O939   2.010       .  S
Fe927       O928   2.072       .  S
Fe927       O936   1.936       .  S
O928        C935   1.277       .  A
O929        C943   1.278       .  A
O930        C935   1.276       .  A
O931        C934   1.248       .  A
O932        C944   1.265       .  A
O933        C946   1.265       .  A
C934        O939   1.258       .  A
O937        C940   1.289       .  A
O938        C940   1.267       .  A
C940        C962   1.479       .  S
O941        C946   1.265       .  A
O942        C944   1.286       .  A
C943        O945   1.275       .  A
C943       C1006   1.498       .  S
C944       C1023   1.492       .  S
Fe947       O963   2.065       .  S
Fe947       O953   1.963       .  S
Fe947       O960   1.992       .  S
Fe947       O952   2.123       .  S
Fe947       O958   1.968       .  S
Fe948       O951   2.090       .  S
Fe948       O955   2.077       .  S
Fe948       O959   2.161       .  S
Fe948       O964   2.134       .  S
Fe948       O958   1.957       .  S
Fe949       O967   2.106   1_554  S
Fe949       O954   2.041       .  S
Fe949      O1313   2.010       .  S
Fe949       O950   2.072       .  S
Fe949       O958   1.936       .  S
O950        C957   1.277       .  A
O951        C965   1.278   1_554  A
O952        C957   1.276       .  A
O953       C1308   1.248       .  A
O954        C966   1.265       .  A
O955        C968   1.265       .  A
C956       O1305   1.248       .  A
C956        O961   1.258       .  A
C956       C1243   1.390       .  S
C957       C1054   1.492       .  S
O959        C962   1.289       .  A
O960        C962   1.267       .  A
O961      Fe1301   2.010       .  S
O963        C968   1.265       .  A
O964        C966   1.286       .  A
C965        O967   1.275       .  A
C965       C1160   1.498       .  S
C968       C1340   1.499       .  S
Fe969       O985   1.988       .  S
Fe969       O975   2.124       .  S
Fe969       O982   2.065       .  S
Fe969       O974   1.962       .  S
Fe969       O980   1.967       .  S
Fe970       O973   2.134       .  S
Fe970       O977   2.162       .  S
Fe970       O981   2.077       .  S
Fe970       O986   2.091       .  S
Fe970       O980   1.957       .  S
Fe971       O989   2.041       .  S
Fe971      O1328   2.106       .  S
Fe971       O983   2.072       .  S
Fe971       O972   2.011       .  S
Fe971       O980   1.936       .  S
O972       C1331   1.258       .  A
O973        C987   1.286       .  A
O974       C1331   1.248       .  A
O975        C978   1.276       .  A
O976      Fe1323   2.106   1_554  S
O976       C1340   1.275       .  A
O977        C990   1.289       .  A
C978        O983   1.277       .  A
C979       O1324   1.258       .  A
C979       O1326   1.248       .  A
C979       C2804   1.390   1_456  S
O981        C984   1.265       .  A
O982        C984   1.264       .  A
C984       C1119   1.498       .  S
O985        C990   1.267       .  A
O986        C988   1.278       .  A
C987        O989   1.265       .  A
C988       O1328   1.275       .  A
C988       C1320   1.499       .  S
C990       C1012   1.478       .  S
Fe991      O1007   1.988       .  S
Fe991      O2405   2.124   1_455  S
Fe991      O1004   2.065       .  S
Fe991       O996   1.962       .  S
Fe991      O1002   1.967       .  S
Fe992       O995   2.134       .  S
Fe992       O999   2.162       .  S
Fe992      O1003   2.077       .  S
Fe992      O1008   2.091       .  S
Fe992      O1002   1.957       .  S
Fe993      O1011   2.041       .  S
Fe993      O2406   2.106       .  S
Fe993      O1005   2.072       .  S
Fe993       O994   2.011       .  S
Fe993      O2410   1.936       .  S
O994       C1001   1.258       .  A
O995       C2417   1.286   1_455  A
O996       C2409   1.248       .  A
O997      Fe2399   2.124       .  S
O997       C1000   1.276       .  A
O998      Fe2401   2.106   1_455  S
O998       C1010   1.275       .  A
O999       C1012   1.289       .  A
C1000      O1005   1.277       .  A
C1001      O2404   1.248       .  A
C1001      C2430   1.390       .  S
O1002     Fe2401   1.936   1_455  S
O1003      C1006   1.265       .  A
O1004      C1006   1.264       .  A
O1007      C1012   1.267       .  A
O1008      C1010   1.278       .  A
C1009      O2403   1.286       .  A
C1009      O1011   1.265       .  A
Fe1013     O1029   2.065       .  S
Fe1013     O1019   1.963       .  S
Fe1013     O1026   1.992       .  S
Fe1013     O2426   2.123       .  S
Fe1013     O1024   1.968       .  S
Fe1014     O1017   2.090       .  S
Fe1014     O1021   2.077       .  S
Fe1014     O1025   2.161       .  S
Fe1014     O1030   2.133       .  S
Fe1014     O1024   1.958       .  S
Fe1015     O2441   2.106   1_455  S
Fe1015     O1020   2.041       .  S
Fe1015     O1027   2.010       .  S
Fe1015     O1016   2.072       .  S
Fe1015     O2432   1.936   1_455  S
O1016      C1023   1.277       .  A
O1017      C1031   1.278       .  A
O1018     Fe2421   2.123   1_455  S
O1018      C1023   1.276       .  A
O1019      C2430   1.248       .  A
O1020      C1032   1.265       .  A
O1021      C1034   1.265       .  A
C1022      O2427   1.248       .  A
C1022      O1027   1.258   1_655  A
C1022      C2409   1.390   1_655  S
O1024     Fe2423   1.936       .  S
O1025      C1028   1.289       .  A
O1026      C1028   1.267       .  A
C1028      C1050   1.479       .  S
O1029      C1034   1.265       .  A
O1030      C2440   1.286       .  A
C1031      O1033   1.275       .  A
C1032      O2438   1.286   1_455  A
O1033     Fe2423   2.106       .  S
Fe1035     O1051   2.065       .  S
Fe1035     O1041   1.963       .  S
Fe1035     O1048   1.992       .  S
Fe1035     O1040   2.123       .  S
Fe1035     O1046   1.968       .  S
Fe1036     O1039   2.090       .  S
Fe1036     O1043   2.077       .  S
Fe1036     O1047   2.161       .  S
Fe1036     O1052   2.133       .  S
Fe1036     O1046   1.958       .  S
Fe1037     O1055   2.106   1_554  S
Fe1037     O1042   2.041       .  S
Fe1037     O1401   2.010       .  S
Fe1037     O1038   2.072       .  S
Fe1037     O1046   1.936       .  S
O1038      C1045   1.277       .  A
O1039      C1053   1.278   1_554  A
O1040      C1045   1.276       .  A
O1041      C1396   1.248       .  A
O1042      C1054   1.265       .  A
O1043      C1056   1.265       .  A
C1044      O1393   1.248       .  A
C1044      O1049   1.258       .  A
C1044      C2739   1.390       .  S
O1047      C1050   1.289       .  A
O1048      C1050   1.267       .  A
O1049     Fe1389   2.010       .  S
O1051      C1056   1.265       .  A
O1052      C1054   1.286       .  A
C1053      O1055   1.275       .  A
C1053      C1248   1.498       .  S
C1056      C1076   1.499       .  S
Fe1057     O1073   1.988       .  S
Fe1057     O2471   2.124       .  S
Fe1057     O1070   2.065       .  S
Fe1057     O1062   1.962       .  S
Fe1057     O1068   1.967       .  S
Fe1058     O1061   2.134       .  S
Fe1058     O1065   2.162       .  S
Fe1058     O1069   2.077       .  S
Fe1058     O1074   2.091       .  S
Fe1058     O1068   1.957       .  S
Fe1059     O1077   2.041       .  S
Fe1059     O2120   2.106   1_456  S
Fe1059     O1071   2.072       .  S
Fe1059     O2476   1.936   1_455  S
O1060      C1067   1.258   1_455  A
O1061      C2483   1.286       .  A
O1062      C2123   1.248       .  A
O1063     Fe2465   2.124   1_455  S
O1063      C1066   1.276       .  A
O1064     Fe2115   2.106       .  S
O1065      C1078   1.289       .  A
C1066      O1071   1.277       .  A
C1066      C1163   1.492       .  S
C1067      O2118   1.248       .  A
C1067      C1462   1.390   1_655  S
O1068     Fe2467   1.936       .  S
O1069      C1072   1.265       .  A
O1070      C1072   1.264       .  A
O1073      C1078   1.267       .  A
O1074      C1076   1.278   1_556  A
C1075      O2469   1.286   1_455  A
C1075      O1077   1.265       .  A
C1075      C1330   1.492       .  S
C1078      C1100   1.478       .  S
Fe1079     O1095   1.988       .  S
Fe1079     O1092   2.065       .  S
Fe1079     O1084   1.962       .  S
Fe1079     O1090   1.967       .  S
Fe1080     O1083   2.134       .  S
Fe1080     O1087   2.162       .  S
Fe1080     O1091   2.077       .  S
Fe1080     O1096   2.091       .  S
Fe1080     O1090   1.957       .  S
Fe1081     O1099   2.041       .  S
Fe1081     O1093   2.072       .  S
Fe1081     O1082   2.011       .  S
O1084      C1089   1.248       .  A
O1085      C1088   1.276       .  A
O1086      C1098   1.275       .  A
O1087      C1100   1.289       .  A
C1088      O1093   1.277       .  A
C1088      C1361   1.492       .  S
C1089      C2540   1.390       .  S
O1091      C1094   1.265       .  A
O1092      C1094   1.264       .  A
C1094      C1383   1.498       .  S
O1095      C1100   1.267       .  A
O1096      C1098   1.278       .  A
C1097      O1099   1.265       .  A
C1097      C1176   1.492       .  S
C1098      C1232   1.499       .  S
Fe1101     O1117   2.065       .  S
Fe1101     O1107   1.963       .  S
Fe1101     O1114   1.992       .  S
Fe1101     O2514   2.123   1_455  S
Fe1101     O1112   1.968       .  S
Fe1102     O1105   2.090       .  S
Fe1102     O1109   2.077       .  S
Fe1102     O1113   2.160       .  S
Fe1102     O1118   2.134       .  S
Fe1102     O1112   1.957       .  S
Fe1103     O2529   2.106       .  S
Fe1103     O1108   2.041       .  S
Fe1103     O1104   2.072       .  S
Fe1103     O2520   1.936       .  S
O1104      C1111   1.277       .  A
O1105      C1119   1.278       .  A
O1106     Fe2509   2.123       .  S
O1106      C1111   1.276       .  A
O1107      C2166   1.248       .  A
O1108      C1120   1.265       .  A
O1109      C1122   1.265       .  A
C1110      O2163   1.248       .  A
C1110      O1115   1.258       .  A
C1110      C1419   1.390   1_564  S
C1111      C1208   1.492       .  S
O1112     Fe2511   1.936   1_455  S
O1113      C1116   1.289       .  A
O1114      C1116   1.267       .  A
C1116      C1138   1.479       .  S
O1117      C1122   1.265       .  A
O1118      C2528   1.286   1_455  A
C1119      O1121   1.275       .  A
C1120      O2526   1.286       .  A
C1120      C1397   1.492       .  S
O1121     Fe2511   2.106   1_455  S
Fe1123     O1139   2.065       .  S
Fe1123     O1136   1.992       .  S
Fe1123     O1134   1.968       .  S
Fe1124     O1127   2.090       .  S
Fe1124     O1131   2.077       .  S
Fe1124     O1135   2.160       .  S
Fe1124     O1140   2.134       .  S
Fe1124     O1134   1.957       .  S
Fe1125     O1143   2.106       .  S
Fe1125     O1130   2.041       .  S
Fe1125     O1137   2.010       .  S
Fe1125     O1126   2.072       .  S
O1126      C1133   1.277       .  A
O1127      C1141   1.278       .  A
O1128      C1133   1.276       .  A
O1129      C1132   1.248       .  A
O1130      C1142   1.265       .  A
O1131      C1144   1.265       .  A
C1132      O1137   1.258       .  A
C1132      C2497   1.390   1_455  S
C1133      C1384   1.492       .  S
O1135      C1138   1.289       .  A
O1136      C1138   1.267       .  A
O1139      C1144   1.265       .  A
C1141      C1182   1.498       .  S
C1142      C1221   1.492       .  S
C1144      C1362   1.499       .  S
Fe1145     O1161   1.988       .  S
Fe1145     O1158   2.065       .  S
Fe1145     O1150   1.962       .  S
Fe1145     O1156   1.967       .  S
Fe1146     O1149   2.134       .  S
Fe1146     O1153   2.162       .  S
Fe1146     O1157   2.077       .  S
Fe1146     O1162   2.091       .  S
Fe1146     O1156   1.957       .  S
Fe1147     O1165   2.041       .  S
Fe1147     O1159   2.072       .  S
O1148      C1155   1.258       .  A
O1151      C1154   1.276       .  A
O1153      C1166   1.289       .  A
C1154      O1159   1.277       .  A
C1154      C1251   1.492       .  S
O1157      C1160   1.265       .  A
O1158      C1160   1.264       .  A
O1161      C1166   1.267       .  A
O1162      C1164   1.278   1_556  A
C1163      O1165   1.265       .  A
C1166      C1188   1.478       .  S
Fe1167     O1183   1.988       .  S
Fe1167     O1173   2.124       .  S
Fe1167     O1180   2.065       .  S
Fe1167     O1172   1.962       .  S
Fe1167     O1178   1.967       .  S
Fe1168     O1171   2.134       .  S
Fe1168     O1175   2.162       .  S
Fe1168     O1179   2.077       .  S
Fe1168     O1184   2.091       .  S
Fe1168     O1178   1.957       .  S
Fe1169     O1187   2.041       .  S
Fe1169     O1174   2.106       .  S
Fe1169     O1181   2.072       .  S
Fe1169     O1170   2.011       .  S
Fe1169     O1178   1.936       .  S
O1170      C1177   1.258       .  A
O1171      C1185   1.286       .  A
O1172      C1177   1.248       .  A
O1173      C1176   1.276       .  A
O1174      C1186   1.275       .  A
O1175      C1188   1.289       .  A
C1176      O1181   1.277       .  A
O1179      C1182   1.265       .  A
O1180      C1182   1.264       .  A
O1183      C1188   1.267       .  A
O1184      C1186   1.278       .  A
C1185      O1187   1.265       .  A
C1185      C1264   1.492       .  S
C1186      C1298   1.499       .  S
Fe1189     O1205   2.065       .  S
Fe1189     O1195   1.963       .  S
Fe1189     O1202   1.992       .  S
Fe1189     O1200   1.968       .  S
Fe1190     O1193   2.090       .  S
Fe1190     O1197   2.077       .  S
Fe1190     O1201   2.160       .  S
Fe1190     O1206   2.133       .  S
Fe1190     O1200   1.958       .  S
Fe1191     O1196   2.041       .  S
Fe1191     O1192   2.072       .  S
O1192      C1199   1.277       .  A
O1193      C1207   1.278       .  A
O1194      C1199   1.276       .  A
O1196      C1208   1.265       .  A
O1197      C1210   1.265       .  A
C1199      C1318   1.492       .  S
O1201      C1204   1.289       .  A
O1202      C1204   1.267       .  A
C1204      C1226   1.479       .  S
O1205      C1210   1.265       .  A
C1207      O1209   1.275       .  A
Fe1211     O1227   2.065       .  S
Fe1211     O1217   1.963       .  S
Fe1211     O1224   1.992       .  S
Fe1211     O1216   2.123       .  S
Fe1211     O1222   1.968       .  S
Fe1212     O1215   2.090       .  S
Fe1212     O1219   2.077       .  S
Fe1212     O1223   2.160       .  S
Fe1212     O1228   2.133       .  S
Fe1212     O1222   1.958       .  S
Fe1213     O1231   2.106       .  S
Fe1213     O1218   2.041       .  S
Fe1213     O1225   2.010       .  S
Fe1213     O1214   2.072       .  S
Fe1213     O1222   1.936       .  S
O1214      C1221   1.277       .  A
O1215      C1229   1.278       .  A
O1216      C1221   1.276       .  A
O1217      C1220   1.248       .  A
O1218      C1230   1.265       .  A
O1219      C1232   1.265       .  A
C1220      O1225   1.258       .  A
O1223      C1226   1.289       .  A
O1224      C1226   1.267       .  A
O1227      C1232   1.265       .  A
O1228      C1230   1.286       .  A
C1229      O1231   1.275       .  A
C1229      C1270   1.498       .  S
C1230      C1287   1.492       .  S
Fe1233     O1249   1.988       .  S
Fe1233     O1239   2.124       .  S
Fe1233     O1246   2.065       .  S
Fe1233     O1238   1.962       .  S
Fe1233     O1244   1.967       .  S
Fe1234     O1237   2.134       .  S
Fe1234     O1241   2.162       .  S
Fe1234     O1245   2.077       .  S
Fe1234     O1250   2.091       .  S
Fe1234     O1244   1.957       .  S
Fe1235     O1253   2.041       .  S
Fe1235     O1247   2.072       .  S
Fe1235     O1244   1.936       .  S
O1236      C1243   1.258       .  A
O1237      C1251   1.286       .  A
O1239      C1242   1.276       .  A
O1241      C1254   1.289       .  A
C1242      O1247   1.277       .  A
C1242      C1339   1.492       .  S
O1245      C1248   1.265       .  A
O1246      C1248   1.264       .  A
O1249      C1254   1.267       .  A
O1250      C1252   1.278   1_556  A
C1251      O1253   1.265       .  A
C1254      C1276   1.478       .  S
Fe1255     O1271   1.988       .  S
Fe1255     O1261   2.124       .  S
Fe1255     O1268   2.065       .  S
Fe1255     O1260   1.962       .  S
Fe1255     O1266   1.967       .  S
Fe1256     O1259   2.134       .  S
Fe1256     O1263   2.162       .  S
Fe1256     O1267   2.077       .  S
Fe1256     O1272   2.091       .  S
Fe1256     O1266   1.957       .  S
Fe1257     O1275   2.041       .  S
Fe1257     O1262   2.106       .  S
Fe1257     O1269   2.072       .  S
Fe1257     O1258   2.011       .  S
Fe1257     O1266   1.936       .  S
O1258      C1265   1.258       .  A
O1259      C1273   1.286       .  A
O1260      C1265   1.248       .  A
O1261      C1264   1.276       .  A
O1262      C1274   1.275       .  A
O1263      C1276   1.289       .  A
C1264      O1269   1.277       .  A
C1265      C1286   1.390       .  S
O1267      C1270   1.265       .  A
O1268      C1270   1.264       .  A
O1271      C1276   1.267       .  A
O1272      C1274   1.278       .  A
C1273      O1275   1.265       .  A
C1273      C1352   1.492       .  S
C1274      C1386   1.499       .  S
Fe1277     O1293   2.065       .  S
Fe1277     O1283   1.963       .  S
Fe1277     O1290   1.992       .  S
Fe1277     O1282   2.123       .  S
Fe1277     O1288   1.968       .  S
Fe1278     O1281   2.090       .  S
Fe1278     O1285   2.077       .  S
Fe1278     O1289   2.161       .  S
Fe1278     O1294   2.134       .  S
Fe1278     O1288   1.958       .  S
Fe1279     O1297   2.106       .  S
Fe1279     O1284   2.041       .  S
Fe1279     O1291   2.010       .  S
Fe1279     O1280   2.072       .  S
Fe1279     O1288   1.936       .  S
O1280      C1287   1.277       .  A
O1281      C1295   1.278       .  A
O1282      C1287   1.276       .  A
O1283      C1286   1.248       .  A
O1284      C1296   1.265       .  A
O1285      C1298   1.265       .  A
C1286      O1291   1.258       .  A
O1289      C1292   1.289       .  A
O1290      C1292   1.267       .  A
C1292      C1314   1.479       .  S
O1293      C1298   1.265       .  A
O1294      C1296   1.286       .  A
C1295      O1297   1.275       .  A
C1295      C1358   1.498       .  S
C1296      C1375   1.492       .  S
Fe1299     O1315   2.065       .  S
Fe1299     O1305   1.963       .  S
Fe1299     O1312   1.992       .  S
Fe1299     O1304   2.123       .  S
Fe1299     O1310   1.968       .  S
Fe1300     O1303   2.090       .  S
Fe1300     O1307   2.077       .  S
Fe1300     O1311   2.161       .  S
Fe1300     O1316   2.134       .  S
Fe1300     O1310   1.957       .  S
Fe1301     O1319   2.106       .  S
Fe1301     O1306   2.041       .  S
Fe1301     O1302   2.072       .  S
Fe1301     O1310   1.936       .  S
O1302      C1309   1.277       .  A
O1303      C1317   1.278       .  A
O1304      C1309   1.276       .  A
O1306      C1318   1.265       .  A
O1307      C1320   1.265       .  A
C1308      O1313   1.258       .  A
C1309      C1406   1.492       .  S
O1311      C1314   1.289       .  A
O1312      C1314   1.267       .  A
O1315      C1320   1.265       .  A
O1316      C1318   1.286       .  A
C1317      O1319   1.275       .  A
Fe1321     O1337   1.988       .  S
Fe1321     O1327   2.124       .  S
Fe1321     O1334   2.065       .  S
Fe1321     O1326   1.962       .  S
Fe1321     O1332   1.967       .  S
Fe1322     O1325   2.134       .  S
Fe1322     O1329   2.162       .  S
Fe1322     O1333   2.077       .  S
Fe1322     O1338   2.091       .  S
Fe1322     O1332   1.957       .  S
Fe1323     O1341   2.041       .  S
Fe1323     O1335   2.072       .  S
Fe1323     O1324   2.011       .  S
Fe1323     O1332   1.936       .  S
O1325      C1339   1.286       .  A
O1327      C1330   1.276       .  A
O1329      C1342   1.289       .  A
C1330      O1335   1.277       .  A
C1331      C2452   1.390   1_455  S
O1333      C1336   1.265       .  A
O1334      C1336   1.264       .  A
O1337      C1342   1.267       .  A
O1338      C1340   1.278   1_556  A
C1339      O1341   1.265       .  A
C1342      C1364   1.478       .  S
Fe1343     O1359   1.988       .  S
Fe1343     O2757   2.124   1_455  S
Fe1343     O1356   2.065       .  S
Fe1343     O1348   1.962       .  S
Fe1343     O1354   1.967       .  S
Fe1344     O1347   2.134       .  S
Fe1344     O1351   2.162       .  S
Fe1344     O1355   2.077       .  S
Fe1344     O1360   2.091       .  S
Fe1344     O1354   1.957       .  S
Fe1345     O1363   2.041       .  S
Fe1345     O2758   2.106       .  S
Fe1345     O1357   2.072       .  S
Fe1345     O1346   2.011       .  S
Fe1345     O2762   1.936       .  S
O1346      C1353   1.258       .  A
O1347      C2769   1.286   1_455  A
O1348      C2761   1.248       .  A
O1349     Fe2751   2.124       .  S
O1349      C1352   1.276       .  A
O1350     Fe2753   2.106   1_455  S
O1350      C1362   1.275       .  A
O1351      C1364   1.289       .  A
C1352      O1357   1.277       .  A
C1353      O2756   1.248       .  A
C1353      C2782   1.390       .  S
O1354     Fe2753   1.936   1_455  S
O1355      C1358   1.265       .  A
O1356      C1358   1.264       .  A
O1359      C1364   1.267       .  A
O1360      C1362   1.278       .  A
C1361      O2755   1.286       .  A
C1361      O1363   1.265       .  A
Fe1365     O1381   2.065       .  S
Fe1365     O1371   1.963       .  S
Fe1365     O1378   1.992       .  S
Fe1365     O2778   2.123       .  S
Fe1365     O1376   1.968       .  S
Fe1366     O1369   2.090       .  S
Fe1366     O1373   2.077       .  S
Fe1366     O1377   2.161       .  S
Fe1366     O1382   2.133       .  S
Fe1366     O1376   1.958       .  S
Fe1367     O2793   2.106   1_455  S
Fe1367     O1372   2.041       .  S
Fe1367     O1379   2.010       .  S
Fe1367     O1368   2.072       .  S
Fe1367     O2784   1.936   1_455  S
O1368      C1375   1.277       .  A
O1369      C1383   1.278       .  A
O1370     Fe2773   2.123   1_455  S
O1370      C1375   1.276       .  A
O1371      C2782   1.248       .  A
O1372      C1384   1.265       .  A
O1373      C1386   1.265       .  A
C1374      O2779   1.248       .  A
C1374      O1379   1.258   1_655  A
C1374      C2761   1.390   1_655  S
O1376     Fe2775   1.936       .  S
O1377      C1380   1.289       .  A
O1378      C1380   1.267       .  A
C1380      C1402   1.479       .  S
O1381      C1386   1.265       .  A
O1382      C2792   1.286       .  A
C1383      O1385   1.275       .  A
C1384      O2790   1.286   1_455  A
O1385     Fe2775   2.106       .  S
Fe1387     O1403   2.065       .  S
Fe1387     O1393   1.963       .  S
Fe1387     O1400   1.992       .  S
Fe1387     O1392   2.123       .  S
Fe1387     O1398   1.968       .  S
Fe1388     O1391   2.090       .  S
Fe1388     O1395   2.077       .  S
Fe1388     O1399   2.161       .  S
Fe1388     O1404   2.133       .  S
Fe1388     O1398   1.958       .  S
Fe1389     O1407   2.106       .  S
Fe1389     O1394   2.041       .  S
Fe1389     O1390   2.072       .  S
Fe1389     O1398   1.936       .  S
O1390      C1397   1.277       .  A
O1391      C1405   1.278       .  A
O1392      C1397   1.276       .  A
O1394      C1406   1.265       .  A
O1395      C1408   1.265       .  A
C1396      O1401   1.258       .  A
C1396      C2387   1.390   1_554  S
O1399      C1402   1.289       .  A
O1400      C1402   1.267       .  A
O1403      C1408   1.265       .  A
O1404      C1406   1.286       .  A
C1405      O1407   1.275       .  A
Fe1409     O1425   1.988       .  S
Fe1409     O1422   2.065       .  S
Fe1409     O1414   1.962       .  S
Fe1409     O1420   1.967       .  S
Fe1410     O1413   2.134       .  S
Fe1410     O1417   2.162       .  S
Fe1410     O1421   2.077       .  S
Fe1410     O1426   2.091       .  S
Fe1410     O1420   1.957       .  S
Fe1411     O1429   2.041       .  S
Fe1411     O1423   2.072       .  S
Fe1411     O1764   2.011       .  S
O1412     Fe1763   2.011       .  S
O1412      C1419   1.258       .  A
O1415      C1418   1.276       .  A
O1416      C1780   1.275       .  A
O1417      C1430   1.289       .  A
C1418      O1423   1.277       .  A
C1418      C1515   1.492       .  S
O1421      C1424   1.265       .  A
O1422      C1424   1.264       .  A
C1424      C1911   1.498       .  S
O1425      C1430   1.267       .  A
O1426      C1428   1.278       .  A
C1427      O1429   1.265       .  A
C1427      C1682   1.492       .  S
C1428      O1768   1.275       .  A
C1428      C2112   1.499       .  S
C1430      C1452   1.478       .  S
Fe1431     O1447   1.988       .  S
Fe1431     O2141   2.124   1_545  S
Fe1431     O1444   2.065       .  S
Fe1431     O1436   1.962       .  S
Fe1431     O1442   1.967       .  S
Fe1432     O1435   2.134       .  S
Fe1432     O1439   2.162       .  S
Fe1432     O1443   2.077       .  S
Fe1432     O1448   2.091       .  S
Fe1432     O1442   1.957       .  S
Fe1433     O1451   2.041       .  S
Fe1433     O2142   2.106       .  S
Fe1433     O1445   2.072       .  S
Fe1433     O1434   2.011       .  S
Fe1433     O2146   1.936       .  S
O1434      C2145   1.258       .  A
O1435      C2153   1.286   1_545  A
O1436      C1441   1.248       .  A
O1437     Fe2135   2.124       .  S
O1437      C1440   1.276       .  A
O1438     Fe2137   2.106   1_545  S
O1438      C1450   1.275       .  A
O1439      C1452   1.289       .  A
C1440      O1445   1.277       .  A
C1440      C1713   1.492       .  S
C1441      O2138   1.258   1_545  A
O1442     Fe2137   1.936   1_545  S
O1443      C1446   1.265       .  A
O1444      C1446   1.264       .  A
C1446      C1735   1.498       .  S
O1447      C1452   1.267       .  A
O1448      C1450   1.278       .  A
C1449      O2139   1.286       .  A
C1449      O1451   1.265       .  A
C1449      C1528   1.492       .  S
C1450      C1584   1.499       .  S
Fe1453     O1469   2.065       .  S
Fe1453     O1459   1.963       .  S
Fe1453     O1466   1.992       .  S
Fe1453     O1464   1.968       .  S
Fe1454     O1457   2.090       .  S
Fe1454     O1461   2.077       .  S
Fe1454     O1465   2.160       .  S
Fe1454     O1470   2.134       .  S
Fe1454     O1464   1.957       .  S
Fe1455     O1460   2.041       .  S
Fe1455     O1819   2.010       .  S
Fe1455     O1456   2.072       .  S
O1456      C1463   1.277       .  A
O1457      C1471   1.278   1_554  A
O1458      C1463   1.276       .  A
O1460      C1472   1.265       .  A
O1461      C1474   1.265       .  A
C1462      O1467   1.258   1_455  A
C1463      C1560   1.492       .  S
O1465      C1468   1.289       .  A
O1466      C1468   1.267       .  A
O1467     Fe1807   2.010       .  S
C1468      C1490   1.479       .  S
O1469      C1474   1.265       .  A
C1471      O1473   1.275       .  A
C1471      C2040   1.498       .  S
C1472      C1749   1.492       .  S
C1474      C1868   1.499       .  S
Fe1475     O1491   2.065       .  S
Fe1475     O2185   1.963       .  S
Fe1475     O1488   1.992       .  S
Fe1475     O2184   2.123       .  S
Fe1475     O1486   1.968       .  S
Fe1476     O1479   2.090       .  S
Fe1476     O1483   2.077       .  S
Fe1476     O1487   2.160       .  S
Fe1476     O1492   2.134       .  S
Fe1476     O1486   1.957       .  S
Fe1477     O1495   2.106   1_545  S
Fe1477     O1482   2.041       .  S
Fe1477     O1489   2.010       .  S
Fe1477     O1478   2.072       .  S
Fe1477     O2190   1.936   1_545  S
O1478      C1485   1.277       .  A
O1479      C1493   1.278       .  A
O1480     Fe2179   2.123   1_545  S
O1480      C1485   1.276       .  A
O1481     Fe2179   1.963       .  S
O1481      C1484   1.248   1_565  A
O1482      C1494   1.265       .  A
O1483      C1496   1.265       .  A
C1484      O1489   1.258       .  A
C1485      C1736   1.492       .  S
O1486     Fe2181   1.936       .  S
O1487      C1490   1.289       .  A
O1488      C1490   1.267       .  A
O1491      C1496   1.265       .  A
O1492      C2198   1.286       .  A
C1493      O2199   1.275       .  A
C1493      C1534   1.498       .  S
C1494      O2196   1.286   1_545  A
C1494      C1573   1.492       .  S
O1495      C2197   1.275       .  A
C1496      C1714   1.499       .  S
Fe1497     O1513   1.988       .  S
Fe1497     O2207   2.124       .  S
Fe1497     O1510   2.065       .  S
Fe1497     O1502   1.962       .  S
Fe1497     O1508   1.967       .  S
Fe1498     O1501   2.134       .  S
Fe1498     O1505   2.162       .  S
Fe1498     O1509   2.077       .  S
Fe1498     O1514   2.091       .  S
Fe1498     O1508   1.957       .  S
Fe1499     O1517   2.041       .  S
Fe1499     O1856   2.106   1_545  S
Fe1499     O1511   2.072       .  S
Fe1499     O1852   2.011       .  S
Fe1499     O2212   1.936   1_545  S
O1500     Fe1851   2.011       .  S
O1500      C1507   1.258       .  A
O1501      C2219   1.286       .  A
O1502      C2563   1.248       .  A
O1503     Fe2201   2.124   1_545  S
O1503      C1506   1.276       .  A
O1504     Fe1851   2.106   1_564  S
O1504      C2572   1.275       .  A
O1505      C1518   1.289       .  A
C1506      O1511   1.277       .  A
C1506      C1603   1.492       .  S
C1507      O2558   1.248   1_545  A
C1507      C1902   1.390   1_556  S
O1508     Fe2203   1.936       .  S
O1509      C1512   1.265       .  A
O1510      C1512   1.264       .  A
C1512      C2021   1.498       .  S
O1513      C1518   1.267       .  A
O1514      C1516   1.278       .  A
C1515      O2205   1.286   1_545  A
C1515      O1517   1.265       .  A
C1516      O2560   1.275       .  A
C1516      C1826   1.499       .  S
C1518      C1540   1.478       .  S
Fe1519     O1535   1.988       .  S
Fe1519     O1525   2.124       .  S
Fe1519     O1532   2.065       .  S
Fe1519     O1524   1.962       .  S
Fe1519     O1530   1.967       .  S
Fe1520     O1523   2.134       .  S
Fe1520     O1527   2.162       .  S
Fe1520     O1531   2.077       .  S
Fe1520     O1536   2.091       .  S
Fe1520     O1530   1.957       .  S
Fe1521     O1539   2.041       .  S
Fe1521     O1526   2.106       .  S
Fe1521     O1533   2.072       .  S
Fe1521     O1522   2.011       .  S
Fe1521     O1530   1.936       .  S
O1522      C1529   1.258       .  A
O1523      C1537   1.286       .  A
O1524      C1529   1.248       .  A
O1525      C1528   1.276       .  A
O1526      C1538   1.275       .  A
O1527      C1540   1.289       .  A
C1528      O1533   1.277       .  A
C1529      C2276   1.390       .  S
O1531      C1534   1.265       .  A
O1532      C1534   1.264       .  A
O1535      C1540   1.267       .  A
O1536      C1538   1.278       .  A
C1537      O1539   1.265       .  A
C1537      C1616   1.492       .  S
C1538      C1650   1.499       .  S
Fe1541     O1557   2.065       .  S
Fe1541     O1547   1.963       .  S
Fe1541     O1554   1.992       .  S
Fe1541     O2250   2.123   1_545  S
Fe1541     O1552   1.968       .  S
Fe1542     O1545   2.090       .  S
Fe1542     O1549   2.077       .  S
Fe1542     O1553   2.160       .  S
Fe1542     O1558   2.133       .  S
Fe1542     O1552   1.958       .  S
Fe1543     O2265   2.106   1_554  S
Fe1543     O1548   2.041       .  S
Fe1543     O1907   2.010       .  S
Fe1543     O1544   2.072       .  S
Fe1543     O2256   1.936       .  S
O1544      C1551   1.277       .  A
O1545      C1559   1.278   1_554  A
O1546     Fe2245   2.123       .  S
O1546      C1551   1.276       .  A
O1547      C1902   1.248       .  A
O1548      C1560   1.265       .  A
O1549      C1562   1.265       .  A
C1550      O1899   1.248       .  A
C1550      O2259   1.258   1_545  A
C1550      C1859   1.390       .  S
C1551      C1670   1.492       .  S
O1552     Fe2247   1.936   1_545  S
O1553      C1556   1.289       .  A
O1554      C1556   1.267       .  A
O1555     Fe1895   2.010       .  S
O1555      C2254   1.258       .  A
C1556      C1578   1.479       .  S
O1557      C1562   1.265       .  A
O1558      C2264   1.286   1_545  A
C1559      O1561   1.275       .  A
C1559      C1776   1.498       .  S
C1560      O2262   1.286       .  A
O1561     Fe2247   2.106   1_546  S
C1562      C1956   1.499       .  S
Fe1563     O1579   2.065       .  S
Fe1563     O1569   1.963       .  S
Fe1563     O1576   1.992       .  S
Fe1563     O1568   2.123       .  S
Fe1563     O1574   1.968       .  S
Fe1564     O1567   2.090       .  S
Fe1564     O1571   2.077       .  S
Fe1564     O1575   2.160       .  S
Fe1564     O1580   2.133       .  S
Fe1564     O1574   1.958       .  S
Fe1565     O1583   2.106       .  S
Fe1565     O1570   2.041       .  S
Fe1565     O1577   2.010       .  S
Fe1565     O1566   2.072       .  S
Fe1565     O1574   1.936       .  S
O1566      C1573   1.277       .  A
O1567      C1581   1.278       .  A
O1568      C1573   1.276       .  A
O1569      C1572   1.248       .  A
O1570      C1582   1.265       .  A
O1571      C1584   1.265       .  A
C1572      O1577   1.258       .  A
C1572      C2233   1.390   1_545  S
O1575      C1578   1.289       .  A
O1576      C1578   1.267       .  A
O1579      C1584   1.265       .  A
O1580      C1582   1.286       .  A
C1581      O1583   1.275       .  A
C1581      C1622   1.498       .  S
C1582      C1639   1.492       .  S
Fe1585     O1601   1.988       .  S
Fe1585     O1591   2.124       .  S
Fe1585     O1598   2.065       .  S
Fe1585     O1590   1.962       .  S
Fe1585     O1596   1.967       .  S
Fe1586     O1589   2.134       .  S
Fe1586     O1593   2.162       .  S
Fe1586     O1597   2.077       .  S
Fe1586     O1602   2.091       .  S
Fe1586     O1596   1.957       .  S
Fe1587     O1605   2.041       .  S
Fe1587     O1944   2.106       .  S
Fe1587     O1599   2.072       .  S
Fe1587     O1940   2.011       .  S
Fe1587     O1596   1.936       .  S
O1588     Fe1939   2.011       .  S
O1588      C1595   1.258       .  A
O1589      C1603   1.286       .  A
O1590      C1947   1.248       .  A
O1591      C1594   1.276       .  A
O1592     Fe1939   2.106   1_554  S
O1592      C1956   1.275       .  A
O1593      C1606   1.289       .  A
C1594      O1599   1.277       .  A
C1594      C1691   1.492       .  S
C1595      O1942   1.248       .  A
C1595      C2012   1.390   1_556  S
O1597      C1600   1.265       .  A
O1598      C1600   1.264       .  A
C1600      C2109   1.498       .  S
O1601      C1606   1.267       .  A
O1602      C1604   1.278       .  A
C1603      O1605   1.265       .  A
C1604      O1944   1.275       .  A
C1604      C1914   1.499       .  S
C1606      C1628   1.478       .  S
Fe1607     O1623   1.988       .  S
Fe1607     O1613   2.124       .  S
Fe1607     O1620   2.065       .  S
Fe1607     O1612   1.962       .  S
Fe1607     O1618   1.967       .  S
Fe1608     O1611   2.134       .  S
Fe1608     O1615   2.162       .  S
Fe1608     O1619   2.077       .  S
Fe1608     O1624   2.091       .  S
Fe1608     O1618   1.957       .  S
Fe1609     O1627   2.041       .  S
Fe1609     O1614   2.106       .  S
Fe1609     O1621   2.072       .  S
Fe1609     O1610   2.011       .  S
Fe1609     O1618   1.936       .  S
O1610      C1617   1.258       .  A
O1611      C1625   1.286       .  A
O1612      C1617   1.248       .  A
O1613      C1616   1.276       .  A
O1614      C1626   1.275       .  A
O1615      C1628   1.289       .  A
C1616      O1621   1.277       .  A
C1617      C1638   1.390       .  S
O1619      C1622   1.265       .  A
O1620      C1622   1.264       .  A
O1623      C1628   1.267       .  A
O1624      C1626   1.278       .  A
C1625      O1627   1.265       .  A
C1625      C1704   1.492       .  S
C1626      C1738   1.499       .  S
Fe1629     O1645   2.065       .  S
Fe1629     O1635   1.963       .  S
Fe1629     O1642   1.992       .  S
Fe1629     O1634   2.123       .  S
Fe1629     O1640   1.968       .  S
Fe1630     O1633   2.090       .  S
Fe1630     O1637   2.077       .  S
Fe1630     O1641   2.161       .  S
Fe1630     O1646   2.134       .  S
Fe1630     O1640   1.958       .  S
Fe1631     O1649   2.106       .  S
Fe1631     O1636   2.041       .  S
Fe1631     O1643   2.010       .  S
Fe1631     O1632   2.072       .  S
Fe1631     O1640   1.936       .  S
O1632      C1639   1.277       .  A
O1633      C1647   1.278       .  A
O1634      C1639   1.276       .  A
O1635      C1638   1.248       .  A
O1636      C1648   1.265       .  A
O1637      C1650   1.265       .  A
C1638      O1643   1.258       .  A
O1641      C1644   1.289       .  A
O1642      C1644   1.267       .  A
C1644      C1666   1.479       .  S
O1645      C1650   1.265       .  A
O1646      C1648   1.286       .  A
C1647      O1649   1.275       .  A
C1647      C1710   1.498       .  S
C1648      C1727   1.492       .  S
Fe1651     O1667   2.065       .  S
Fe1651     O1657   1.963       .  S
Fe1651     O1664   1.992       .  S
Fe1651     O1656   2.123       .  S
Fe1651     O1662   1.968       .  S
Fe1652     O1655   2.090       .  S
Fe1652     O1659   2.077       .  S
Fe1652     O1663   2.161       .  S
Fe1652     O1668   2.134       .  S
Fe1652     O1662   1.957       .  S
Fe1653     O1671   2.106   1_554  S
Fe1653     O1658   2.041       .  S
Fe1653     O2017   2.010       .  S
Fe1653     O1654   2.072       .  S
Fe1653     O1662   1.936       .  S
O1654      C1661   1.277       .  A
O1655      C1669   1.278   1_554  A
O1656      C1661   1.276       .  A
O1657      C2012   1.248       .  A
O1658      C1670   1.265       .  A
O1659      C1672   1.265       .  A
C1660      O2009   1.248       .  A
C1660      O1665   1.258       .  A
C1660      C1947   1.390       .  S
C1661      C1758   1.492       .  S
O1663      C1666   1.289       .  A
O1664      C1666   1.267       .  A
O1665     Fe2005   2.010       .  S
O1667      C1672   1.265       .  A
O1668      C1670   1.286       .  A
C1669      O1671   1.275       .  A
C1669      C1864   1.498       .  S
C1672      C2044   1.499       .  S
Fe1673     O1689   1.988       .  S
Fe1673     O1679   2.124       .  S
Fe1673     O1686   2.065       .  S
Fe1673     O1678   1.962       .  S
Fe1673     O1684   1.967       .  S
Fe1674     O1677   2.134       .  S
Fe1674     O1681   2.162       .  S
Fe1674     O1685   2.077       .  S
Fe1674     O1690   2.091       .  S
Fe1674     O1684   1.957       .  S
Fe1675     O1693   2.041       .  S
Fe1675     O2032   2.106       .  S
Fe1675     O1687   2.072       .  S
Fe1675     O1676   2.011       .  S
Fe1675     O1684   1.936       .  S
O1676      C2035   1.258       .  A
O1677      C1691   1.286       .  A
O1678      C2035   1.248       .  A
O1679      C1682   1.276       .  A
O1680     Fe2027   2.106   1_554  S
O1680      C2044   1.275       .  A
O1681      C1694   1.289       .  A
C1682      O1687   1.277       .  A
C1683      O2028   1.258       .  A
C1683      O2030   1.248       .  A
O1685      C1688   1.265       .  A
O1686      C1688   1.264       .  A
C1688      C1823   1.498       .  S
O1689      C1694   1.267       .  A
O1690      C1692   1.278       .  A
C1691      O1693   1.265       .  A
C1692      O2032   1.275       .  A
C1692      C2024   1.499       .  S
C1694      C1716   1.478       .  S
Fe1695     O1711   1.988       .  S
Fe1695     O1708   2.065       .  S
Fe1695     O1700   1.962       .  S
Fe1695     O1706   1.967       .  S
Fe1696     O1699   2.134       .  S
Fe1696     O1703   2.162       .  S
Fe1696     O1707   2.077       .  S
Fe1696     O1712   2.091       .  S
Fe1696     O1706   1.957       .  S
Fe1697     O1715   2.041       .  S
Fe1697     O1709   2.072       .  S
Fe1697     O1698   2.011       .  S
O1698      C1705   1.258   1_655  A
O1701      C1704   1.276       .  A
O1702      C1714   1.275       .  A
O1703      C1716   1.289       .  A
C1704      O1709   1.277       .  A
O1707      C1710   1.265       .  A
O1708      C1710   1.264       .  A
O1711      C1716   1.267       .  A
O1712      C1714   1.278       .  A
C1713      O1715   1.265       .  A
Fe1717     O1733   2.065       .  S
Fe1717     O1723   1.963       .  S
Fe1717     O1730   1.992       .  S
Fe1717     O1728   1.968       .  S
Fe1718     O1721   2.090       .  S
Fe1718     O1725   2.077       .  S
Fe1718     O1729   2.161       .  S
Fe1718     O1734   2.133       .  S
Fe1718     O1728   1.958       .  S
Fe1719     O1724   2.041       .  S
Fe1719     O1731   2.010       .  S
Fe1719     O1720   2.072       .  S
O1720      C1727   1.277       .  A
O1721      C1735   1.278       .  A
O1722      C1727   1.276       .  A
O1724      C1736   1.265       .  A
O1725      C1738   1.265       .  A
C1726      O1731   1.258       .  A
O1729      C1732   1.289       .  A
O1730      C1732   1.267       .  A
C1732      C1754   1.479       .  S
O1733      C1738   1.265       .  A
C1735      O1737   1.275       .  A
Fe1739     O1755   2.065       .  S
Fe1739     O1745   1.963       .  S
Fe1739     O1752   1.992       .  S
Fe1739     O1744   2.123       .  S
Fe1739     O1750   1.968       .  S
Fe1740     O1743   2.090       .  S
Fe1740     O1747   2.077       .  S
Fe1740     O1751   2.161       .  S
Fe1740     O1756   2.133       .  S
Fe1740     O1750   1.958       .  S
Fe1741     O1759   2.106   1_554  S
Fe1741     O1746   2.041       .  S
Fe1741     O2105   2.010       .  S
Fe1741     O1742   2.072       .  S
Fe1741     O1750   1.936       .  S
O1742      C1749   1.277       .  A
O1743      C1757   1.278   1_554  A
O1744      C1749   1.276       .  A
O1745      C2100   1.248       .  A
O1746      C1758   1.265       .  A
O1747      C1760   1.265       .  A
C1748      O2097   1.248       .  A
C1748      O1753   1.258       .  A
O1751      C1754   1.289       .  A
O1752      C1754   1.267       .  A
O1753     Fe2093   2.010       .  S
O1755      C1760   1.265       .  A
O1756      C1758   1.286       .  A
C1757      O1759   1.275       .  A
C1757      C1952   1.498       .  S
C1760      C1780   1.499       .  S
Fe1761     O1777   1.988       .  S
Fe1761     O1774   2.065       .  S
Fe1761     O1766   1.962       .  S
Fe1761     O1772   1.967       .  S
Fe1762     O1765   2.134       .  S
Fe1762     O1769   2.162       .  S
Fe1762     O1773   2.077       .  S
Fe1762     O1778   2.091       .  S
Fe1762     O1772   1.957       .  S
Fe1763     O1781   2.041       .  S
Fe1763     O1775   2.072       .  S
O1764      C1771   1.258       .  A
O1767      C1770   1.276       .  A
O1769      C1782   1.289       .  A
C1770      O1775   1.277       .  A
C1770      C1867   1.492       .  S
O1773      C1776   1.265       .  A
O1774      C1776   1.264       .  A
O1777      C1782   1.267       .  A
O1778      C1780   1.278   1_556  A
C1779      O1781   1.265       .  A
C1779      C2034   1.492       .  S
C1782      C1804   1.478       .  S
Fe1783     O1799   1.988       .  S
Fe1783     O2493   2.124   1_545  S
Fe1783     O1796   2.065       .  S
Fe1783     O1788   1.962       .  S
Fe1783     O1794   1.967       .  S
Fe1784     O1787   2.134       .  S
Fe1784     O1791   2.162       .  S
Fe1784     O1795   2.077       .  S
Fe1784     O1800   2.091       .  S
Fe1784     O1794   1.957       .  S
Fe1785     O1803   2.041       .  S
Fe1785     O2494   2.106       .  S
Fe1785     O1797   2.072       .  S
Fe1785     O1786   2.011       .  S
Fe1785     O2498   1.936       .  S
O1786      C2497   1.258       .  A
O1787      C2505   1.286   1_545  A
O1788      C1793   1.248       .  A
O1789     Fe2487   2.124       .  S
O1789      C1792   1.276       .  A
O1790     Fe2489   2.106   1_545  S
O1790      C1802   1.275       .  A
O1791      C1804   1.289       .  A
C1792      O1797   1.277       .  A
C1792      C2065   1.492       .  S
C1793      O2490   1.258   1_545  A
O1794     Fe2489   1.936   1_545  S
O1795      C1798   1.265       .  A
O1796      C1798   1.264       .  A
C1798      C2087   1.498       .  S
O1799      C1804   1.267       .  A
O1800      C1802   1.278       .  A
C1801      O2491   1.286       .  A
C1801      O1803   1.265       .  A
C1801      C1880   1.492       .  S
C1802      C1936   1.499       .  S
Fe1805     O1821   2.065       .  S
Fe1805     O1811   1.963       .  S
Fe1805     O1818   1.992       .  S
Fe1805     O1816   1.968       .  S
Fe1806     O1809   2.090       .  S
Fe1806     O1813   2.077       .  S
Fe1806     O1817   2.160       .  S
Fe1806     O1822   2.134       .  S
Fe1806     O1816   1.957       .  S
Fe1807     O1812   2.041       .  S
Fe1807     O1808   2.072       .  S
O1808      C1815   1.277       .  A
O1809      C1823   1.278       .  A
O1810      C1815   1.276       .  A
O1812      C1824   1.265       .  A
O1813      C1826   1.265       .  A
C1814      O1819   1.258   1_455  A
C1815      C1912   1.492       .  S
O1817      C1820   1.289       .  A
O1818      C1820   1.267       .  A
C1820      C1842   1.479       .  S
O1821      C1826   1.265       .  A
C1823      O1825   1.275       .  A
C1824      C2101   1.492       .  S
Fe1827     O1843   2.065       .  S
Fe1827     O2537   1.963       .  S
Fe1827     O1840   1.992       .  S
Fe1827     O2536   2.123       .  S
Fe1827     O1838   1.968       .  S
Fe1828     O1831   2.090       .  S
Fe1828     O1835   2.077       .  S
Fe1828     O1839   2.160       .  S
Fe1828     O1844   2.134       .  S
Fe1828     O1838   1.957       .  S
Fe1829     O1847   2.106   1_545  S
Fe1829     O1834   2.041       .  S
Fe1829     O1841   2.010       .  S
Fe1829     O1830   2.072       .  S
Fe1829     O2542   1.936   1_545  S
O1830      C1837   1.277       .  A
O1831      C1845   1.278       .  A
O1832     Fe2531   2.123   1_545  S
O1832      C1837   1.276       .  A
O1833     Fe2531   1.963       .  S
O1833      C1836   1.248   1_565  A
O1834      C1846   1.265       .  A
O1835      C1848   1.265       .  A
C1836      O1841   1.258       .  A
C1837      C2088   1.492       .  S
O1838     Fe2533   1.936       .  S
O1839      C1842   1.289       .  A
O1840      C1842   1.267       .  A
O1843      C1848   1.265       .  A
O1844      C2550   1.286       .  A
C1845      O2551   1.275       .  A
C1845      C1886   1.498       .  S
C1846      O2548   1.286   1_545  A
C1846      C1925   1.492       .  S
O1847      C2549   1.275       .  A
C1848      C2066   1.499       .  S
Fe1849     O1865   1.988       .  S
Fe1849     O2559   2.124       .  S
Fe1849     O1862   2.065       .  S
Fe1849     O1854   1.962       .  S
Fe1849     O1860   1.967       .  S
Fe1850     O1853   2.134       .  S
Fe1850     O1857   2.162       .  S
Fe1850     O1861   2.077       .  S
Fe1850     O1866   2.091       .  S
Fe1850     O1860   1.957       .  S
Fe1851     O1869   2.041       .  S
Fe1851     O1863   2.072       .  S
Fe1851     O2564   1.936   1_545  S
O1852      C1859   1.258       .  A
O1853      C2571   1.286       .  A
O1854      C2211   1.248       .  A
O1855     Fe2553   2.124   1_545  S
O1855      C1858   1.276       .  A
O1856      C2220   1.275       .  A
O1857      C1870   1.289       .  A
C1858      O1863   1.277       .  A
C1858      C1955   1.492       .  S
C1859      O2206   1.248   1_545  A
O1860     Fe2555   1.936       .  S
O1861      C1864   1.265       .  A
O1862      C1864   1.264       .  A
O1865      C1870   1.267       .  A
O1866      C1868   1.278   1_556  A
C1867      O2557   1.286   1_545  A
C1867      O1869   1.265       .  A
C1868      O2208   1.275       .  A
C1870      C1892   1.478       .  S
Fe1871     O1887   1.988       .  S
Fe1871     O1877   2.124       .  S
Fe1871     O1884   2.065       .  S
Fe1871     O1876   1.962       .  S
Fe1871     O1882   1.967       .  S
Fe1872     O1875   2.134       .  S
Fe1872     O1879   2.162       .  S
Fe1872     O1883   2.077       .  S
Fe1872     O1888   2.091       .  S
Fe1872     O1882   1.957       .  S
Fe1873     O1891   2.041       .  S
Fe1873     O1878   2.106       .  S
Fe1873     O1885   2.072       .  S
Fe1873     O1874   2.011       .  S
Fe1873     O1882   1.936       .  S
O1874      C1881   1.258       .  A
O1875      C1889   1.286       .  A
O1876      C1881   1.248       .  A
O1877      C1880   1.276       .  A
O1878      C1890   1.275       .  A
O1879      C1892   1.289       .  A
C1880      O1885   1.277       .  A
C1881      C2628   1.390       .  S
O1883      C1886   1.265       .  A
O1884      C1886   1.264       .  A
O1887      C1892   1.267       .  A
O1888      C1890   1.278       .  A
C1889      O1891   1.265       .  A
C1889      C1968   1.492       .  S
C1890      C2002   1.499       .  S
Fe1893     O1909   2.065       .  S
Fe1893     O1899   1.963       .  S
Fe1893     O1906   1.992       .  S
Fe1893     O2602   2.123   1_545  S
Fe1893     O1904   1.968       .  S
Fe1894     O1897   2.090       .  S
Fe1894     O1901   2.077       .  S
Fe1894     O1905   2.160       .  S
Fe1894     O1910   2.133       .  S
Fe1894     O1904   1.958       .  S
Fe1895     O2617   2.106       .  S
Fe1895     O1900   2.041       .  S
Fe1895     O1896   2.072       .  S
Fe1895     O2608   1.936       .  S
O1896      C1903   1.277       .  A
O1897      C1911   1.278       .  A
O1898     Fe2597   2.123       .  S
O1898      C1903   1.276       .  A
O1900      C1912   1.265       .  A
O1901      C1914   1.265       .  A
C1902      O2611   1.258   1_545  A
C1903      C2022   1.492       .  S
O1904     Fe2599   1.936   1_545  S
O1905      C1908   1.289       .  A
O1906      C1908   1.267       .  A
O1907      C2606   1.258       .  A
C1908      C1930   1.479       .  S
O1909      C1914   1.265       .  A
O1910      C2616   1.286   1_545  A
C1911      O1913   1.275       .  A
C1912      O2614   1.286       .  A
O1913     Fe2599   2.106   1_545  S
Fe1915     O1931   2.065       .  S
Fe1915     O1921   1.963       .  S
Fe1915     O1928   1.992       .  S
Fe1915     O1920   2.123       .  S
Fe1915     O1926   1.968       .  S
Fe1916     O1919   2.090       .  S
Fe1916     O1923   2.077       .  S
Fe1916     O1927   2.160       .  S
Fe1916     O1932   2.133       .  S
Fe1916     O1926   1.958       .  S
Fe1917     O1935   2.106       .  S
Fe1917     O1922   2.041       .  S
Fe1917     O1929   2.010       .  S
Fe1917     O1918   2.072       .  S
Fe1917     O1926   1.936       .  S
O1918      C1925   1.277       .  A
O1919      C1933   1.278       .  A
O1920      C1925   1.276       .  A
O1921      C1924   1.248       .  A
O1922      C1934   1.265       .  A
O1923      C1936   1.265       .  A
C1924      O1929   1.258       .  A
C1924      C2585   1.390   1_545  S
O1927      C1930   1.289       .  A
O1928      C1930   1.267       .  A
O1931      C1936   1.265       .  A
O1932      C1934   1.286       .  A
C1933      O1935   1.275       .  A
C1933      C1974   1.498       .  S
C1934      C1991   1.492       .  S
Fe1937     O1953   1.988       .  S
Fe1937     O1943   2.124       .  S
Fe1937     O1950   2.065       .  S
Fe1937     O1942   1.962       .  S
Fe1937     O1948   1.967       .  S
Fe1938     O1941   2.134       .  S
Fe1938     O1945   2.162       .  S
Fe1938     O1949   2.077       .  S
Fe1938     O1954   2.091       .  S
Fe1938     O1948   1.957       .  S
Fe1939     O1957   2.041       .  S
Fe1939     O1951   2.072       .  S
Fe1939     O1948   1.936       .  S
O1940      C1947   1.258       .  A
O1941      C1955   1.286       .  A
O1943      C1946   1.276       .  A
O1945      C1958   1.289       .  A
C1946      O1951   1.277       .  A
C1946      C2043   1.492       .  S
O1949      C1952   1.265       .  A
O1950      C1952   1.264       .  A
O1953      C1958   1.267       .  A
O1954      C1956   1.278   1_556  A
C1955      O1957   1.265       .  A
C1958      C1980   1.478       .  S
Fe1959     O1975   1.988       .  S
Fe1959     O1965   2.124       .  S
Fe1959     O1972   2.065       .  S
Fe1959     O1964   1.962       .  S
Fe1959     O1970   1.967       .  S
Fe1960     O1963   2.134       .  S
Fe1960     O1967   2.162       .  S
Fe1960     O1971   2.077       .  S
Fe1960     O1976   2.091       .  S
Fe1960     O1970   1.957       .  S
Fe1961     O1979   2.041       .  S
Fe1961     O1966   2.106       .  S
Fe1961     O1973   2.072       .  S
Fe1961     O1962   2.011       .  S
Fe1961     O1970   1.936       .  S
O1962      C1969   1.258       .  A
O1963      C1977   1.286       .  A
O1964      C1969   1.248       .  A
O1965      C1968   1.276       .  A
O1966      C1978   1.275       .  A
O1967      C1980   1.289       .  A
C1968      O1973   1.277       .  A
C1969      C1990   1.390       .  S
O1971      C1974   1.265       .  A
O1972      C1974   1.264       .  A
O1975      C1980   1.267       .  A
O1976      C1978   1.278       .  A
C1977      O1979   1.265       .  A
C1977      C2056   1.492       .  S
C1978      C2090   1.499       .  S
Fe1981     O1997   2.065       .  S
Fe1981     O1987   1.963       .  S
Fe1981     O1994   1.992       .  S
Fe1981     O1986   2.123       .  S
Fe1981     O1992   1.968       .  S
Fe1982     O1985   2.090       .  S
Fe1982     O1989   2.077       .  S
Fe1982     O1993   2.161       .  S
Fe1982     O1998   2.134       .  S
Fe1982     O1992   1.958       .  S
Fe1983     O2001   2.106       .  S
Fe1983     O1988   2.041       .  S
Fe1983     O1995   2.010       .  S
Fe1983     O1984   2.072       .  S
Fe1983     O1992   1.936       .  S
O1984      C1991   1.277       .  A
O1985      C1999   1.278       .  A
O1986      C1991   1.276       .  A
O1987      C1990   1.248       .  A
O1988      C2000   1.265       .  A
O1989      C2002   1.265       .  A
C1990      O1995   1.258       .  A
O1993      C1996   1.289       .  A
O1994      C1996   1.267       .  A
C1996      C2018   1.479       .  S
O1997      C2002   1.265       .  A
O1998      C2000   1.286       .  A
C1999      O2001   1.275       .  A
C1999      C2062   1.498       .  S
C2000      C2079   1.492       .  S
Fe2003     O2019   2.065       .  S
Fe2003     O2009   1.963       .  S
Fe2003     O2016   1.992       .  S
Fe2003     O2008   2.123       .  S
Fe2003     O2014   1.968       .  S
Fe2004     O2007   2.090       .  S
Fe2004     O2011   2.077       .  S
Fe2004     O2015   2.161       .  S
Fe2004     O2020   2.134       .  S
Fe2004     O2014   1.958       .  S
Fe2005     O2023   2.106       .  S
Fe2005     O2010   2.041       .  S
Fe2005     O2006   2.072       .  S
Fe2005     O2014   1.936       .  S
O2006      C2013   1.277       .  A
O2007      C2021   1.278       .  A
O2008      C2013   1.276       .  A
O2010      C2022   1.265       .  A
O2011      C2024   1.265       .  A
C2012      O2017   1.258       .  A
C2013      C2110   1.492       .  S
O2015      C2018   1.289       .  A
O2016      C2018   1.267       .  A
O2019      C2024   1.265       .  A
O2020      C2022   1.286       .  A
C2021      O2023   1.275       .  A
Fe2025     O2041   1.988       .  S
Fe2025     O2031   2.124       .  S
Fe2025     O2038   2.065       .  S
Fe2025     O2030   1.962       .  S
Fe2025     O2036   1.967       .  S
Fe2026     O2029   2.134       .  S
Fe2026     O2033   2.162       .  S
Fe2026     O2037   2.077       .  S
Fe2026     O2042   2.091       .  S
Fe2026     O2036   1.957       .  S
Fe2027     O2045   2.041       .  S
Fe2027     O2039   2.072       .  S
Fe2027     O2028   2.011       .  S
Fe2027     O2036   1.936       .  S
O2029      C2043   1.286       .  A
O2031      C2034   1.276       .  A
O2033      C2046   1.289       .  A
C2034      O2039   1.277       .  A
O2037      C2040   1.265       .  A
O2038      C2040   1.264       .  A
O2041      C2046   1.267       .  A
O2042      C2044   1.278   1_556  A
C2043      O2045   1.265       .  A
C2046      C2068   1.478       .  S
Fe2047     O2063   1.988       .  S
Fe2047     O2060   2.065       .  S
Fe2047     O2052   1.962       .  S
Fe2047     O2058   1.967       .  S
Fe2048     O2051   2.134       .  S
Fe2048     O2055   2.162       .  S
Fe2048     O2059   2.077       .  S
Fe2048     O2064   2.091       .  S
Fe2048     O2058   1.957       .  S
Fe2049     O2067   2.041       .  S
Fe2049     O2061   2.072       .  S
Fe2049     O2050   2.011       .  S
O2050      C2057   1.258   1_655  A
O2053      C2056   1.276       .  A
O2054      C2066   1.275       .  A
O2055      C2068   1.289       .  A
C2056      O2061   1.277       .  A
O2059      C2062   1.265       .  A
O2060      C2062   1.264       .  A
O2063      C2068   1.267       .  A
O2064      C2066   1.278       .  A
C2065      O2067   1.265       .  A
Fe2069     O2085   2.065       .  S
Fe2069     O2075   1.963       .  S
Fe2069     O2082   1.992       .  S
Fe2069     O2080   1.968       .  S
Fe2070     O2073   2.090       .  S
Fe2070     O2077   2.077       .  S
Fe2070     O2081   2.160       .  S
Fe2070     O2086   2.133       .  S
Fe2070     O2080   1.958       .  S
Fe2071     O2076   2.041       .  S
Fe2071     O2083   2.010       .  S
Fe2071     O2072   2.072       .  S
O2072      C2079   1.277       .  A
O2073      C2087   1.278       .  A
O2074      C2079   1.276       .  A
O2076      C2088   1.265       .  A
O2077      C2090   1.265       .  A
C2078      O2083   1.258       .  A
O2081      C2084   1.289       .  A
O2082      C2084   1.267       .  A
C2084      C2106   1.479       .  S
O2085      C2090   1.265       .  A
C2087      O2089   1.275       .  A
Fe2091     O2107   2.065       .  S
Fe2091     O2097   1.963       .  S
Fe2091     O2104   1.992       .  S
Fe2091     O2096   2.123       .  S
Fe2091     O2102   1.968       .  S
Fe2092     O2095   2.090       .  S
Fe2092     O2099   2.077       .  S
Fe2092     O2103   2.161       .  S
Fe2092     O2108   2.133       .  S
Fe2092     O2102   1.958       .  S
Fe2093     O2111   2.106       .  S
Fe2093     O2098   2.041       .  S
Fe2093     O2094   2.072       .  S
Fe2093     O2102   1.936       .  S
O2094      C2101   1.277       .  A
O2095      C2109   1.278       .  A
O2096      C2101   1.276       .  A
O2098      C2110   1.265       .  A
O2099      C2112   1.265       .  A
C2100      O2105   1.258       .  A
O2103      C2106   1.289       .  A
O2104      C2106   1.267       .  A
O2107      C2112   1.265       .  A
O2108      C2110   1.286       .  A
C2109      O2111   1.275       .  A
Fe2113     O2129   1.988       .  S
Fe2113     O2126   2.065       .  S
Fe2113     O2118   1.962       .  S
Fe2113     O2124   1.967       .  S
Fe2114     O2117   2.134       .  S
Fe2114     O2121   2.162       .  S
Fe2114     O2125   2.077       .  S
Fe2114     O2130   2.091       .  S
Fe2114     O2124   1.957       .  S
Fe2115     O2133   2.041       .  S
Fe2115     O2127   2.072       .  S
Fe2115     O2468   2.011       .  S
O2116     Fe2467   2.011       .  S
O2116      C2123   1.258       .  A
O2119      C2122   1.276       .  A
O2120      C2484   1.275       .  A
O2121      C2134   1.289       .  A
C2122      O2127   1.277       .  A
C2122      C2219   1.492       .  S
O2125      C2128   1.265       .  A
O2126      C2128   1.264       .  A
C2128      C2615   1.498       .  S
O2129      C2134   1.267       .  A
O2130      C2132   1.278       .  A
C2131      O2133   1.265       .  A
C2131      C2386   1.492       .  S
C2132      O2472   1.275       .  A
C2132      C2816   1.499       .  S
C2134      C2156   1.478       .  S
Fe2135     O2151   1.988       .  S
Fe2135     O2148   2.065       .  S
Fe2135     O2140   1.962       .  S
Fe2135     O2146   1.967       .  S
Fe2136     O2139   2.134       .  S
Fe2136     O2143   2.162       .  S
Fe2136     O2147   2.077       .  S
Fe2136     O2152   2.091       .  S
Fe2136     O2146   1.957       .  S
Fe2137     O2155   2.041       .  S
Fe2137     O2149   2.072       .  S
Fe2137     O2138   2.011       .  S
O2140      C2145   1.248       .  A
O2141      C2144   1.276       .  A
O2142      C2154   1.275       .  A
O2143      C2156   1.289       .  A
C2144      O2149   1.277       .  A
C2144      C2417   1.492       .  S
O2147      C2150   1.265       .  A
O2148      C2150   1.264       .  A
C2150      C2439   1.498       .  S
O2151      C2156   1.267       .  A
O2152      C2154   1.278       .  A
C2153      O2155   1.265       .  A
C2153      C2232   1.492       .  S
C2154      C2288   1.499       .  S
Fe2157     O2173   2.065       .  S
Fe2157     O2163   1.963       .  S
Fe2157     O2170   1.992       .  S
Fe2157     O2168   1.968       .  S
Fe2158     O2161   2.090       .  S
Fe2158     O2165   2.077       .  S
Fe2158     O2169   2.160       .  S
Fe2158     O2174   2.134       .  S
Fe2158     O2168   1.957       .  S
Fe2159     O2164   2.041       .  S
Fe2159     O2523   2.010       .  S
Fe2159     O2160   2.072       .  S
O2160      C2167   1.277       .  A
O2161      C2175   1.278   1_554  A
O2162      C2167   1.276       .  A
O2164      C2176   1.265       .  A
O2165      C2178   1.265       .  A
C2166      O2171   1.258   1_455  A
C2167      C2264   1.492       .  S
O2169      C2172   1.289       .  A
O2170      C2172   1.267       .  A
O2171     Fe2511   2.010       .  S
C2172      C2194   1.479       .  S
O2173      C2178   1.265       .  A
C2175      O2177   1.275       .  A
C2175      C2744   1.498       .  S
C2176      C2453   1.492       .  S
C2178      C2572   1.499       .  S
Fe2179     O2195   2.065       .  S
Fe2179     O2192   1.992       .  S
Fe2179     O2190   1.968       .  S
Fe2180     O2183   2.090       .  S
Fe2180     O2187   2.077       .  S
Fe2180     O2191   2.160       .  S
Fe2180     O2196   2.134       .  S
Fe2180     O2190   1.957       .  S
Fe2181     O2199   2.106       .  S
Fe2181     O2186   2.041       .  S
Fe2181     O2193   2.010       .  S
Fe2181     O2182   2.072       .  S
O2182      C2189   1.277       .  A
O2183      C2197   1.278       .  A
O2184      C2189   1.276       .  A
O2185      C2188   1.248       .  A
O2186      C2198   1.265       .  A
O2187      C2200   1.265       .  A
C2188      O2193   1.258       .  A
C2189      C2440   1.492       .  S
O2191      C2194   1.289       .  A
O2192      C2194   1.267       .  A
O2195      C2200   1.265       .  A
C2197      C2238   1.498       .  S
C2198      C2277   1.492       .  S
C2200      C2418   1.499       .  S
Fe2201     O2217   1.988       .  S
Fe2201     O2214   2.065       .  S
Fe2201     O2206   1.962       .  S
Fe2201     O2212   1.967       .  S
Fe2202     O2205   2.134       .  S
Fe2202     O2209   2.162       .  S
Fe2202     O2213   2.077       .  S
Fe2202     O2218   2.091       .  S
Fe2202     O2212   1.957       .  S
Fe2203     O2221   2.041       .  S
Fe2203     O2560   2.106       .  S
Fe2203     O2215   2.072       .  S
Fe2203     O2556   2.011       .  S
O2204     Fe2555   2.011       .  S
O2204      C2211   1.258       .  A
O2207      C2210   1.276       .  A
O2208     Fe2555   2.106   1_554  S
O2209      C2222   1.289       .  A
C2210      O2215   1.277       .  A
C2210      C2307   1.492       .  S
C2211      C2606   1.390   1_556  S
O2213      C2216   1.265       .  A
O2214      C2216   1.264       .  A
C2216      C2725   1.498       .  S
O2217      C2222   1.267       .  A
O2218      C2220   1.278       .  A
C2219      O2221   1.265       .  A
C2220      C2530   1.499       .  S
C2222      C2244   1.478       .  S
Fe2223     O2239   1.988       .  S
Fe2223     O2229   2.124       .  S
Fe2223     O2236   2.065       .  S
Fe2223     O2228   1.962       .  S
Fe2223     O2234   1.967       .  S
Fe2224     O2227   2.134       .  S
Fe2224     O2231   2.162       .  S
Fe2224     O2235   2.077       .  S
Fe2224     O2240   2.091       .  S
Fe2224     O2234   1.957       .  S
Fe2225     O2243   2.041       .  S
Fe2225     O2230   2.106       .  S
Fe2225     O2237   2.072       .  S
Fe2225     O2226   2.011       .  S
Fe2225     O2234   1.936       .  S
O2226      C2233   1.258       .  A
O2227      C2241   1.286       .  A
O2228      C2233   1.248       .  A
O2229      C2232   1.276       .  A
O2230      C2242   1.275       .  A
O2231      C2244   1.289       .  A
C2232      O2237   1.277       .  A
O2235      C2238   1.265       .  A
O2236      C2238   1.264       .  A
O2239      C2244   1.267       .  A
O2240      C2242   1.278       .  A
C2241      O2243   1.265       .  A
C2241      C2320   1.492       .  S
C2242      C2354   1.499       .  S
Fe2245     O2261   2.065       .  S
Fe2245     O2251   1.963       .  S
Fe2245     O2258   1.992       .  S
Fe2245     O2256   1.968       .  S
Fe2246     O2249   2.090       .  S
Fe2246     O2253   2.077       .  S
Fe2246     O2257   2.160       .  S
Fe2246     O2262   2.133       .  S
Fe2246     O2256   1.958       .  S
Fe2247     O2252   2.041       .  S
Fe2247     O2611   2.010       .  S
Fe2247     O2248   2.072       .  S
O2248      C2255   1.277       .  A
O2249      C2263   1.278   1_554  A
O2250      C2255   1.276       .  A
O2251      C2606   1.248       .  A
O2252      C2264   1.265       .  A
O2253      C2266   1.265       .  A
C2254      O2603   1.248       .  A
C2254      C2563   1.390       .  S
C2255      C2374   1.492       .  S
O2257      C2260   1.289       .  A
O2258      C2260   1.267       .  A
O2259     Fe2599   2.010       .  S
C2260      C2282   1.479       .  S
O2261      C2266   1.265       .  A
C2263      O2265   1.275       .  A
C2263      C2480   1.498       .  S
C2266      C2660   1.499       .  S
Fe2267     O2283   2.065       .  S
Fe2267     O2273   1.963       .  S
Fe2267     O2280   1.992       .  S
Fe2267     O2272   2.123       .  S
Fe2267     O2278   1.968       .  S
Fe2268     O2271   2.090       .  S
Fe2268     O2275   2.077       .  S
Fe2268     O2279   2.160       .  S
Fe2268     O2284   2.133       .  S
Fe2268     O2278   1.958       .  S
Fe2269     O2287   2.106       .  S
Fe2269     O2274   2.041       .  S
Fe2269     O2281   2.010       .  S
Fe2269     O2270   2.072       .  S
Fe2269     O2278   1.936       .  S
O2270      C2277   1.277       .  A
O2271      C2285   1.278       .  A
O2272      C2277   1.276       .  A
O2273      C2276   1.248       .  A
O2274      C2286   1.265       .  A
O2275      C2288   1.265       .  A
C2276      O2281   1.258       .  A
O2279      C2282   1.289       .  A
O2280      C2282   1.267       .  A
O2283      C2288   1.265       .  A
O2284      C2286   1.286       .  A
C2285      O2287   1.275       .  A
C2285      C2326   1.498       .  S
C2286      C2343   1.492       .  S
Fe2289     O2305   1.988       .  S
Fe2289     O2295   2.124       .  S
Fe2289     O2302   2.065       .  S
Fe2289     O2294   1.962       .  S
Fe2289     O2300   1.967       .  S
Fe2290     O2293   2.134       .  S
Fe2290     O2297   2.162       .  S
Fe2290     O2301   2.077       .  S
Fe2290     O2306   2.091       .  S
Fe2290     O2300   1.957       .  S
Fe2291     O2309   2.041       .  S
Fe2291     O2648   2.106       .  S
Fe2291     O2303   2.072       .  S
Fe2291     O2644   2.011       .  S
Fe2291     O2300   1.936       .  S
O2292     Fe2643   2.011       .  S
O2292      C2299   1.258       .  A
O2293      C2307   1.286       .  A
O2294      C2651   1.248       .  A
O2295      C2298   1.276       .  A
O2296     Fe2643   2.106   1_554  S
O2296      C2660   1.275       .  A
O2297      C2310   1.289       .  A
C2298      O2303   1.277       .  A
C2298      C2395   1.492       .  S
C2299      O2646   1.248       .  A
C2299      C2716   1.390   1_556  S
O2301      C2304   1.265       .  A
O2302      C2304   1.264       .  A
C2304      C2813   1.498       .  S
O2305      C2310   1.267       .  A
O2306      C2308   1.278       .  A
C2307      O2309   1.265       .  A
C2308      O2648   1.275       .  A
C2308      C2618   1.499       .  S
C2310      C2332   1.478       .  S
Fe2311     O2327   1.988       .  S
Fe2311     O2317   2.124       .  S
Fe2311     O2324   2.065       .  S
Fe2311     O2316   1.962       .  S
Fe2311     O2322   1.967       .  S
Fe2312     O2315   2.134       .  S
Fe2312     O2319   2.162       .  S
Fe2312     O2323   2.077       .  S
Fe2312     O2328   2.091       .  S
Fe2312     O2322   1.957       .  S
Fe2313     O2331   2.041       .  S
Fe2313     O2318   2.106       .  S
Fe2313     O2325   2.072       .  S
Fe2313     O2314   2.011       .  S
Fe2313     O2322   1.936       .  S
O2314      C2321   1.258       .  A
O2315      C2329   1.286       .  A
O2316      C2321   1.248       .  A
O2317      C2320   1.276       .  A
O2318      C2330   1.275       .  A
O2319      C2332   1.289       .  A
C2320      O2325   1.277       .  A
C2321      C2342   1.390       .  S
O2323      C2326   1.265       .  A
O2324      C2326   1.264       .  A
O2327      C2332   1.267       .  A
O2328      C2330   1.278       .  A
C2329      O2331   1.265       .  A
C2329      C2408   1.492       .  S
C2330      C2442   1.499       .  S
Fe2333     O2349   2.065       .  S
Fe2333     O2339   1.963       .  S
Fe2333     O2346   1.992       .  S
Fe2333     O2338   2.123       .  S
Fe2333     O2344   1.968       .  S
Fe2334     O2337   2.090       .  S
Fe2334     O2341   2.077       .  S
Fe2334     O2345   2.161       .  S
Fe2334     O2350   2.134       .  S
Fe2334     O2344   1.958       .  S
Fe2335     O2353   2.106       .  S
Fe2335     O2340   2.041       .  S
Fe2335     O2347   2.010       .  S
Fe2335     O2336   2.072       .  S
Fe2335     O2344   1.936       .  S
O2336      C2343   1.277       .  A
O2337      C2351   1.278       .  A
O2338      C2343   1.276       .  A
O2339      C2342   1.248       .  A
O2340      C2352   1.265       .  A
O2341      C2354   1.265       .  A
C2342      O2347   1.258       .  A
O2345      C2348   1.289       .  A
O2346      C2348   1.267       .  A
C2348      C2370   1.479       .  S
O2349      C2354   1.265       .  A
O2350      C2352   1.286       .  A
C2351      O2353   1.275       .  A
C2351      C2414   1.498       .  S
C2352      C2431   1.492       .  S
Fe2355     O2371   2.065       .  S
Fe2355     O2361   1.963       .  S
Fe2355     O2368   1.992       .  S
Fe2355     O2360   2.123       .  S
Fe2355     O2366   1.968       .  S
Fe2356     O2359   2.090       .  S
Fe2356     O2363   2.077       .  S
Fe2356     O2367   2.161       .  S
Fe2356     O2372   2.134       .  S
Fe2356     O2366   1.957       .  S
Fe2357     O2375   2.106   1_554  S
Fe2357     O2362   2.041       .  S
Fe2357     O2721   2.010       .  S
Fe2357     O2358   2.072       .  S
Fe2357     O2366   1.936       .  S
O2358      C2365   1.277       .  A
O2359      C2373   1.278   1_554  A
O2360      C2365   1.276       .  A
O2361      C2716   1.248       .  A
O2362      C2374   1.265       .  A
O2363      C2376   1.265       .  A
C2364      O2713   1.248       .  A
C2364      O2369   1.258       .  A
C2364      C2651   1.390       .  S
C2365      C2462   1.492       .  S
O2367      C2370   1.289       .  A
O2368      C2370   1.267       .  A
O2369     Fe2709   2.010       .  S
O2371      C2376   1.265       .  A
O2372      C2374   1.286       .  A
C2373      O2375   1.275       .  A
C2373      C2568   1.498       .  S
C2376      C2748   1.499       .  S
Fe2377     O2393   1.988       .  S
Fe2377     O2383   2.124       .  S
Fe2377     O2390   2.065       .  S
Fe2377     O2382   1.962       .  S
Fe2377     O2388   1.967       .  S
Fe2378     O2381   2.134       .  S
Fe2378     O2385   2.162       .  S
Fe2378     O2389   2.077       .  S
Fe2378     O2394   2.091       .  S
Fe2378     O2388   1.957       .  S
Fe2379     O2397   2.041       .  S
Fe2379     O2736   2.106       .  S
Fe2379     O2391   2.072       .  S
Fe2379     O2380   2.011       .  S
Fe2379     O2388   1.936       .  S
O2380      C2739   1.258       .  A
O2381      C2395   1.286       .  A
O2382      C2739   1.248       .  A
O2383      C2386   1.276       .  A
O2384     Fe2731   2.106   1_554  S
O2384      C2748   1.275       .  A
O2385      C2398   1.289       .  A
C2386      O2391   1.277       .  A
C2387      O2732   1.258       .  A
C2387      O2734   1.248       .  A
O2389      C2392   1.265       .  A
O2390      C2392   1.264       .  A
C2392      C2527   1.498       .  S
O2393      C2398   1.267       .  A
O2394      C2396   1.278       .  A
C2395      O2397   1.265       .  A
C2396      O2736   1.275       .  A
C2396      C2728   1.499       .  S
C2398      C2420   1.478       .  S
Fe2399     O2415   1.988       .  S
Fe2399     O2412   2.065       .  S
Fe2399     O2404   1.962       .  S
Fe2399     O2410   1.967       .  S
Fe2400     O2403   2.134       .  S
Fe2400     O2407   2.162       .  S
Fe2400     O2411   2.077       .  S
Fe2400     O2416   2.091       .  S
Fe2400     O2410   1.957       .  S
Fe2401     O2419   2.041       .  S
Fe2401     O2413   2.072       .  S
Fe2401     O2402   2.011       .  S
O2402      C2409   1.258   1_655  A
O2405      C2408   1.276       .  A
O2406      C2418   1.275       .  A
O2407      C2420   1.289       .  A
C2408      O2413   1.277       .  A
O2411      C2414   1.265       .  A
O2412      C2414   1.264       .  A
O2415      C2420   1.267       .  A
O2416      C2418   1.278       .  A
C2417      O2419   1.265       .  A
Fe2421     O2437   2.065       .  S
Fe2421     O2427   1.963       .  S
Fe2421     O2434   1.992       .  S
Fe2421     O2432   1.968       .  S
Fe2422     O2425   2.090       .  S
Fe2422     O2429   2.077       .  S
Fe2422     O2433   2.161       .  S
Fe2422     O2438   2.133       .  S
Fe2422     O2432   1.958       .  S
Fe2423     O2428   2.041       .  S
Fe2423     O2435   2.010       .  S
Fe2423     O2424   2.072       .  S
O2424      C2431   1.277       .  A
O2425      C2439   1.278       .  A
O2426      C2431   1.276       .  A
O2428      C2440   1.265       .  A
O2429      C2442   1.265       .  A
C2430      O2435   1.258       .  A
O2433      C2436   1.289       .  A
O2434      C2436   1.267       .  A
C2436      C2458   1.479       .  S
O2437      C2442   1.265       .  A
C2439      O2441   1.275       .  A
Fe2443     O2459   2.065       .  S
Fe2443     O2449   1.963       .  S
Fe2443     O2456   1.992       .  S
Fe2443     O2448   2.123       .  S
Fe2443     O2454   1.968       .  S
Fe2444     O2447   2.090       .  S
Fe2444     O2451   2.077       .  S
Fe2444     O2455   2.161       .  S
Fe2444     O2460   2.133       .  S
Fe2444     O2454   1.958       .  S
Fe2445     O2463   2.106   1_554  S
Fe2445     O2450   2.041       .  S
Fe2445     O2809   2.010       .  S
Fe2445     O2446   2.072       .  S
Fe2445     O2454   1.936       .  S
O2446      C2453   1.277       .  A
O2447      C2461   1.278   1_554  A
O2448      C2453   1.276       .  A
O2449      C2804   1.248       .  A
O2450      C2462   1.265       .  A
O2451      C2464   1.265       .  A
C2452      O2801   1.248       .  A
C2452      O2457   1.258       .  A
O2455      C2458   1.289       .  A
O2456      C2458   1.267       .  A
O2457     Fe2797   2.010       .  S
O2459      C2464   1.265       .  A
O2460      C2462   1.286       .  A
C2461      O2463   1.275       .  A
C2461      C2656   1.498       .  S
C2464      C2484   1.499       .  S
Fe2465     O2481   1.988       .  S
Fe2465     O2478   2.065       .  S
Fe2465     O2470   1.962       .  S
Fe2465     O2476   1.967       .  S
Fe2466     O2469   2.134       .  S
Fe2466     O2473   2.162       .  S
Fe2466     O2477   2.077       .  S
Fe2466     O2482   2.091       .  S
Fe2466     O2476   1.957       .  S
Fe2467     O2485   2.041       .  S
Fe2467     O2479   2.072       .  S
O2468      C2475   1.258       .  A
O2471      C2474   1.276       .  A
O2473      C2486   1.289       .  A
C2474      O2479   1.277       .  A
C2474      C2571   1.492       .  S
O2477      C2480   1.265       .  A
O2478      C2480   1.264       .  A
O2481      C2486   1.267       .  A
O2482      C2484   1.278   1_556  A
C2483      O2485   1.265       .  A
C2483      C2738   1.492       .  S
C2486      C2508   1.478       .  S
Fe2487     O2503   1.988       .  S
Fe2487     O2500   2.065       .  S
Fe2487     O2492   1.962       .  S
Fe2487     O2498   1.967       .  S
Fe2488     O2491   2.134       .  S
Fe2488     O2495   2.162       .  S
Fe2488     O2499   2.077       .  S
Fe2488     O2504   2.091       .  S
Fe2488     O2498   1.957       .  S
Fe2489     O2507   2.041       .  S
Fe2489     O2501   2.072       .  S
Fe2489     O2490   2.011       .  S
O2492      C2497   1.248       .  A
O2493      C2496   1.276       .  A
O2494      C2506   1.275       .  A
O2495      C2508   1.289       .  A
C2496      O2501   1.277       .  A
C2496      C2769   1.492       .  S
O2499      C2502   1.265       .  A
O2500      C2502   1.264       .  A
C2502      C2791   1.498       .  S
O2503      C2508   1.267       .  A
O2504      C2506   1.278       .  A
C2505      O2507   1.265       .  A
C2505      C2584   1.492       .  S
C2506      C2640   1.499       .  S
Fe2509     O2525   2.065       .  S
Fe2509     O2515   1.963       .  S
Fe2509     O2522   1.992       .  S
Fe2509     O2520   1.968       .  S
Fe2510     O2513   2.090       .  S
Fe2510     O2517   2.077       .  S
Fe2510     O2521   2.160       .  S
Fe2510     O2526   2.134       .  S
Fe2510     O2520   1.957       .  S
Fe2511     O2516   2.041       .  S
Fe2511     O2512   2.072       .  S
O2512      C2519   1.277       .  A
O2513      C2527   1.278       .  A
O2514      C2519   1.276       .  A
O2516      C2528   1.265       .  A
O2517      C2530   1.265       .  A
C2518      O2523   1.258   1_455  A
C2519      C2616   1.492       .  S
O2521      C2524   1.289       .  A
O2522      C2524   1.267       .  A
C2524      C2546   1.479       .  S
O2525      C2530   1.265       .  A
C2527      O2529   1.275       .  A
C2528      C2805   1.492       .  S
Fe2531     O2547   2.065       .  S
Fe2531     O2544   1.992       .  S
Fe2531     O2542   1.968       .  S
Fe2532     O2535   2.090       .  S
Fe2532     O2539   2.077       .  S
Fe2532     O2543   2.160       .  S
Fe2532     O2548   2.134       .  S
Fe2532     O2542   1.957       .  S
Fe2533     O2551   2.106       .  S
Fe2533     O2538   2.041       .  S
Fe2533     O2545   2.010       .  S
Fe2533     O2534   2.072       .  S
O2534      C2541   1.277       .  A
O2535      C2549   1.278       .  A
O2536      C2541   1.276       .  A
O2537      C2540   1.248       .  A
O2538      C2550   1.265       .  A
O2539      C2552   1.265       .  A
C2540      O2545   1.258       .  A
C2541      C2792   1.492       .  S
O2543      C2546   1.289       .  A
O2544      C2546   1.267       .  A
O2547      C2552   1.265       .  A
C2549      C2590   1.498       .  S
C2550      C2629   1.492       .  S
C2552      C2770   1.499       .  S
Fe2553     O2569   1.988       .  S
Fe2553     O2566   2.065       .  S
Fe2553     O2558   1.962       .  S
Fe2553     O2564   1.967       .  S
Fe2554     O2557   2.134       .  S
Fe2554     O2561   2.162       .  S
Fe2554     O2565   2.077       .  S
Fe2554     O2570   2.091       .  S
Fe2554     O2564   1.957       .  S
Fe2555     O2573   2.041       .  S
Fe2555     O2567   2.072       .  S
O2556      C2563   1.258       .  A
O2559      C2562   1.276       .  A
O2561      C2574   1.289       .  A
C2562      O2567   1.277       .  A
C2562      C2659   1.492       .  S
O2565      C2568   1.265       .  A
O2566      C2568   1.264       .  A
O2569      C2574   1.267       .  A
O2570      C2572   1.278   1_556  A
C2571      O2573   1.265       .  A
C2574      C2596   1.478       .  S
Fe2575     O2591   1.988       .  S
Fe2575     O2581   2.124       .  S
Fe2575     O2588   2.065       .  S
Fe2575     O2580   1.962       .  S
Fe2575     O2586   1.967       .  S
Fe2576     O2579   2.134       .  S
Fe2576     O2583   2.162       .  S
Fe2576     O2587   2.077       .  S
Fe2576     O2592   2.091       .  S
Fe2576     O2586   1.957       .  S
Fe2577     O2595   2.041       .  S
Fe2577     O2582   2.106       .  S
Fe2577     O2589   2.072       .  S
Fe2577     O2578   2.011       .  S
Fe2577     O2586   1.936       .  S
O2578      C2585   1.258       .  A
O2579      C2593   1.286       .  A
O2580      C2585   1.248       .  A
O2581      C2584   1.276       .  A
O2582      C2594   1.275       .  A
O2583      C2596   1.289       .  A
C2584      O2589   1.277       .  A
O2587      C2590   1.265       .  A
O2588      C2590   1.264       .  A
O2591      C2596   1.267       .  A
O2592      C2594   1.278       .  A
C2593      O2595   1.265       .  A
C2593      C2672   1.492       .  S
C2594      C2706   1.499       .  S
Fe2597     O2613   2.065       .  S
Fe2597     O2603   1.963       .  S
Fe2597     O2610   1.992       .  S
Fe2597     O2608   1.968       .  S
Fe2598     O2601   2.090       .  S
Fe2598     O2605   2.077       .  S
Fe2598     O2609   2.160       .  S
Fe2598     O2614   2.133       .  S
Fe2598     O2608   1.958       .  S
Fe2599     O2604   2.041       .  S
Fe2599     O2600   2.072       .  S
O2600      C2607   1.277       .  A
O2601      C2615   1.278       .  A
O2602      C2607   1.276       .  A
O2604      C2616   1.265       .  A
O2605      C2618   1.265       .  A
C2607      C2726   1.492       .  S
O2609      C2612   1.289       .  A
O2610      C2612   1.267       .  A
C2612      C2634   1.479       .  S
O2613      C2618   1.265       .  A
C2615      O2617   1.275       .  A
Fe2619     O2635   2.065       .  S
Fe2619     O2625   1.963       .  S
Fe2619     O2632   1.992       .  S
Fe2619     O2624   2.123       .  S
Fe2619     O2630   1.968       .  S
Fe2620     O2623   2.090       .  S
Fe2620     O2627   2.077       .  S
Fe2620     O2631   2.160       .  S
Fe2620     O2636   2.133       .  S
Fe2620     O2630   1.958       .  S
Fe2621     O2639   2.106       .  S
Fe2621     O2626   2.041       .  S
Fe2621     O2633   2.010       .  S
Fe2621     O2622   2.072       .  S
Fe2621     O2630   1.936       .  S
O2622      C2629   1.277       .  A
O2623      C2637   1.278       .  A
O2624      C2629   1.276       .  A
O2625      C2628   1.248       .  A
O2626      C2638   1.265       .  A
O2627      C2640   1.265       .  A
C2628      O2633   1.258       .  A
O2631      C2634   1.289       .  A
O2632      C2634   1.267       .  A
O2635      C2640   1.265       .  A
O2636      C2638   1.286       .  A
C2637      O2639   1.275       .  A
C2637      C2678   1.498       .  S
C2638      C2695   1.492       .  S
Fe2641     O2657   1.988       .  S
Fe2641     O2647   2.124       .  S
Fe2641     O2654   2.065       .  S
Fe2641     O2646   1.962       .  S
Fe2641     O2652   1.967       .  S
Fe2642     O2645   2.134       .  S
Fe2642     O2649   2.162       .  S
Fe2642     O2653   2.077       .  S
Fe2642     O2658   2.091       .  S
Fe2642     O2652   1.957       .  S
Fe2643     O2661   2.041       .  S
Fe2643     O2655   2.072       .  S
Fe2643     O2652   1.936       .  S
O2644      C2651   1.258       .  A
O2645      C2659   1.286       .  A
O2647      C2650   1.276       .  A
O2649      C2662   1.289       .  A
C2650      O2655   1.277       .  A
C2650      C2747   1.492       .  S
O2653      C2656   1.265       .  A
O2654      C2656   1.264       .  A
O2657      C2662   1.267       .  A
O2658      C2660   1.278   1_556  A
C2659      O2661   1.265       .  A
C2662      C2684   1.478       .  S
Fe2663     O2679   1.988       .  S
Fe2663     O2669   2.124       .  S
Fe2663     O2676   2.065       .  S
Fe2663     O2668   1.962       .  S
Fe2663     O2674   1.967       .  S
Fe2664     O2667   2.134       .  S
Fe2664     O2671   2.162       .  S
Fe2664     O2675   2.077       .  S
Fe2664     O2680   2.091       .  S
Fe2664     O2674   1.957       .  S
Fe2665     O2683   2.041       .  S
Fe2665     O2670   2.106       .  S
Fe2665     O2677   2.072       .  S
Fe2665     O2666   2.011       .  S
Fe2665     O2674   1.936       .  S
O2666      C2673   1.258       .  A
O2667      C2681   1.286       .  A
O2668      C2673   1.248       .  A
O2669      C2672   1.276       .  A
O2670      C2682   1.275       .  A
O2671      C2684   1.289       .  A
C2672      O2677   1.277       .  A
C2673      C2694   1.390       .  S
O2675      C2678   1.265       .  A
O2676      C2678   1.264       .  A
O2679      C2684   1.267       .  A
O2680      C2682   1.278       .  A
C2681      O2683   1.265       .  A
C2681      C2760   1.492       .  S
C2682      C2794   1.499       .  S
Fe2685     O2701   2.065       .  S
Fe2685     O2691   1.963       .  S
Fe2685     O2698   1.992       .  S
Fe2685     O2690   2.123       .  S
Fe2685     O2696   1.968       .  S
Fe2686     O2689   2.090       .  S
Fe2686     O2693   2.077       .  S
Fe2686     O2697   2.161       .  S
Fe2686     O2702   2.134       .  S
Fe2686     O2696   1.958       .  S
Fe2687     O2705   2.106       .  S
Fe2687     O2692   2.041       .  S
Fe2687     O2699   2.010       .  S
Fe2687     O2688   2.072       .  S
Fe2687     O2696   1.936       .  S
O2688      C2695   1.277       .  A
O2689      C2703   1.278       .  A
O2690      C2695   1.276       .  A
O2691      C2694   1.248       .  A
O2692      C2704   1.265       .  A
O2693      C2706   1.265       .  A
C2694      O2699   1.258       .  A
O2697      C2700   1.289       .  A
O2698      C2700   1.267       .  A
C2700      C2722   1.479       .  S
O2701      C2706   1.265       .  A
O2702      C2704   1.286       .  A
C2703      O2705   1.275       .  A
C2703      C2766   1.498       .  S
C2704      C2783   1.492       .  S
Fe2707     O2723   2.065       .  S
Fe2707     O2713   1.963       .  S
Fe2707     O2720   1.992       .  S
Fe2707     O2712   2.123       .  S
Fe2707     O2718   1.968       .  S
Fe2708     O2711   2.090       .  S
Fe2708     O2715   2.077       .  S
Fe2708     O2719   2.161       .  S
Fe2708     O2724   2.134       .  S
Fe2708     O2718   1.957       .  S
Fe2709     O2727   2.106       .  S
Fe2709     O2714   2.041       .  S
Fe2709     O2710   2.072       .  S
Fe2709     O2718   1.936       .  S
O2710      C2717   1.277       .  A
O2711      C2725   1.278       .  A
O2712      C2717   1.276       .  A
O2714      C2726   1.265       .  A
O2715      C2728   1.265       .  A
C2716      O2721   1.258       .  A
C2717      C2814   1.492       .  S
O2719      C2722   1.289       .  A
O2720      C2722   1.267       .  A
O2723      C2728   1.265       .  A
O2724      C2726   1.286       .  A
C2725      O2727   1.275       .  A
Fe2729     O2745   1.988       .  S
Fe2729     O2735   2.124       .  S
Fe2729     O2742   2.065       .  S
Fe2729     O2734   1.962       .  S
Fe2729     O2740   1.967       .  S
Fe2730     O2733   2.134       .  S
Fe2730     O2737   2.162       .  S
Fe2730     O2741   2.077       .  S
Fe2730     O2746   2.091       .  S
Fe2730     O2740   1.957       .  S
Fe2731     O2749   2.041       .  S
Fe2731     O2743   2.072       .  S
Fe2731     O2732   2.011       .  S
Fe2731     O2740   1.936       .  S
O2733      C2747   1.286       .  A
O2735      C2738   1.276       .  A
O2737      C2750   1.289       .  A
C2738      O2743   1.277       .  A
O2741      C2744   1.265       .  A
O2742      C2744   1.264       .  A
O2745      C2750   1.267       .  A
O2746      C2748   1.278   1_556  A
C2747      O2749   1.265       .  A
C2750      C2772   1.478       .  S
Fe2751     O2767   1.988       .  S
Fe2751     O2764   2.065       .  S
Fe2751     O2756   1.962       .  S
Fe2751     O2762   1.967       .  S
Fe2752     O2755   2.134       .  S
Fe2752     O2759   2.162       .  S
Fe2752     O2763   2.077       .  S
Fe2752     O2768   2.091       .  S
Fe2752     O2762   1.957       .  S
Fe2753     O2771   2.041       .  S
Fe2753     O2765   2.072       .  S
Fe2753     O2754   2.011       .  S
O2754      C2761   1.258   1_655  A
O2757      C2760   1.276       .  A
O2758      C2770   1.275       .  A
O2759      C2772   1.289       .  A
C2760      O2765   1.277       .  A
O2763      C2766   1.265       .  A
O2764      C2766   1.264       .  A
O2767      C2772   1.267       .  A
O2768      C2770   1.278       .  A
C2769      O2771   1.265       .  A
Fe2773     O2789   2.065       .  S
Fe2773     O2779   1.963       .  S
Fe2773     O2786   1.992       .  S
Fe2773     O2784   1.968       .  S
Fe2774     O2777   2.090       .  S
Fe2774     O2781   2.077       .  S
Fe2774     O2785   2.161       .  S
Fe2774     O2790   2.133       .  S
Fe2774     O2784   1.958       .  S
Fe2775     O2780   2.041       .  S
Fe2775     O2787   2.010       .  S
Fe2775     O2776   2.072       .  S
O2776      C2783   1.277       .  A
O2777      C2791   1.278       .  A
O2778      C2783   1.276       .  A
O2780      C2792   1.265       .  A
O2781      C2794   1.265       .  A
C2782      O2787   1.258       .  A
O2785      C2788   1.289       .  A
O2786      C2788   1.267       .  A
C2788      C2810   1.479       .  S
O2789      C2794   1.265       .  A
C2791      O2793   1.275       .  A
Fe2795     O2811   2.065       .  S
Fe2795     O2801   1.963       .  S
Fe2795     O2808   1.992       .  S
Fe2795     O2800   2.123       .  S
Fe2795     O2806   1.968       .  S
Fe2796     O2799   2.090       .  S
Fe2796     O2803   2.077       .  S
Fe2796     O2807   2.161       .  S
Fe2796     O2812   2.133       .  S
Fe2796     O2806   1.958       .  S
Fe2797     O2815   2.106       .  S
Fe2797     O2802   2.041       .  S
Fe2797     O2798   2.072       .  S
Fe2797     O2806   1.936       .  S
O2798      C2805   1.277       .  A
O2799      C2813   1.278       .  A
O2800      C2805   1.276       .  A
O2802      C2814   1.265       .  A
O2803      C2816   1.265       .  A
C2804      O2809   1.258       .  A
O2807      C2810   1.289       .  A
O2808      C2810   1.267       .  A
O2811      C2816   1.265       .  A
O2812      C2814   1.286       .  A
C2813      O2815   1.275       .  A
