geometry optimzed in LAMMPS
_audit_creation_date              2020-12-01 
_audit_creation_method            'lammps2cif' 
_symmetry_space_group_name_H-M    'P1' 
_symmetry_Int_Tables_number       1 
_symmetry_cell_setting            triclinic 
loop_ 
_symmetry_equiv_pos_as_xyz 
  x,y,z 
_cell_length_a                    99.62296704 
_cell_length_b                    99.83641407355886 
_cell_length_c                    39.09398877501798 
_cell_angle_alpha                 90.3284649950964 
_cell_angle_beta                  90.18432658299572 
_cell_angle_gamma                 120.2556102893 
loop_ 
_atom_site_label 
_atom_site_type_symbol 
_atom_site_fract_x 
_atom_site_fract_y 
_atom_site_fract_z 
_atom_site_charge 
Zn1        Zn  0.05116818  0.45100353  0.49940599     1.49700
Zn2        Zn  0.05076931  0.47348559  0.44562559     1.49400
Zn3        Zn  0.04484968  0.47748078  0.01934039     1.49100
Zn4        Zn  0.07875982  0.48745298  0.49836421     1.49500
O5          O  0.05758489  0.47329995  0.98945685    -1.84000
O6          O  0.03684812  0.43846224  0.46072354    -0.74600
O7          O  0.03004033  0.47229541  0.44466534    -0.74400
O8          O  0.03241651  0.45958886  0.05034341    -0.73900
O9          O  0.04709172  0.45494075  0.41782264    -0.74600
O10         O  0.04151696  0.44351177  0.04352884    -0.74200
O11         O  0.02839688  0.47864921  0.99321737    -0.74800
O12         O  0.08203926  0.50087941  0.04133468    -0.74200
O13         O  0.06583208  0.49369369  0.42393381    -0.75000
O14         O  0.05790395  0.49648102  0.04845371    -0.74300
O15         O  0.08546413  0.50452636  0.46121736    -0.74800
O16         O  0.09038886  0.47503437  0.49535886    -0.74700
O17         O  0.07104807  0.45022342  0.49595317    -0.74500
C18         C  0.03741476  0.44154126  0.42903923     0.77300
C19         C  0.02398158  0.47615673  0.96214061     0.77800
C20         C  0.03239113  0.44723996  0.05807233     0.76700
C21         C  0.07229438  0.50366519  0.05645719     0.77100
C22         C  0.07875601  0.50512201  0.43376433     0.78200
C23         C  0.08548389  0.46040908  0.49401848     0.77300
Zn24       Zn  0.13760095  0.37040961  0.42620852     1.49700
Zn25       Zn  0.14460591  0.39844422  0.47554027     1.49400
Zn26       Zn  0.17026504  0.39967264  0.43074442     1.49100
Zn27       Zn  0.14307917  0.40055283  0.38959860     1.49500
O28         O  0.14838174  0.39251484  0.43001494    -1.84000
O29         O  0.12202144  0.36088130  0.46172257    -0.74600
O30         O  0.16472827  0.40687647  0.50573981    -0.74400
O31         O  0.17497958  0.38290999  0.44182244    -0.73900
O32         O  0.12738960  0.37930549  0.50018416    -0.74600
O33         O  0.15164646  0.36225860  0.43434250    -0.74200
O34         O  0.18195154  0.41622067  0.46429173    -0.74800
O35         O  0.16280919  0.41244929  0.35808197    -0.74200
O36         O  0.13656514  0.41343347  0.46734541    -0.75000
O37         O  0.17943270  0.40812921  0.38704091    -0.74300
O38         O  0.13397251  0.41351348  0.41019749    -0.74800
O39         O  0.12641721  0.38229950  0.35907632    -0.74700
O40         O  0.12604035  0.36202848  0.38295327    -0.74500
C41         C  0.11954014  0.36515739  0.49036872     0.77300
C42         C  0.17886096  0.41372731  0.49574026     0.77800
C43         C  0.16597887  0.36831731  0.44157116     0.76700
C44         C  0.17602058  0.41317409  0.36077782     0.77100
C45         C  0.13209573  0.41746213  0.44046597     0.78200
C46         C  0.12163736  0.36773197  0.35956678     0.77300
Zn47       Zn  0.06144398  0.56201967  0.25837513     1.49700
Zn48       Zn  0.06874588  0.59290826  0.29883993     1.49400
Zn49       Zn  0.06950872  0.59043974  0.21317602     1.49100
Zn50       Zn  0.03815601  0.57517861  0.25536304     1.49500
O51         O  0.05985088  0.58049607  0.25664751    -1.84000
O52         O  0.07402197  0.56240679  0.29763987    -0.74600
O53         O  0.08400011  0.61518700  0.28151377    -0.74400
O54         O  0.07889537  0.57928739  0.18633934    -0.73900
O55         O  0.07898527  0.58303478  0.32905523    -0.74600
O56         O  0.06979726  0.55762768  0.21592627    -0.74200
O57         O  0.08508513  0.61289831  0.22451821    -0.74800
O58         O  0.03182961  0.57976946  0.21132159    -0.74200
O59         O  0.05119624  0.59246726  0.32937391    -0.75000
O60         O  0.05307263  0.58908034  0.17959019    -0.74300
O61         O  0.03173920  0.58425415  0.29234882    -0.74800
O62         O  0.02439639  0.55264474  0.26231369    -0.74700
O63         O  0.04080064  0.54385414  0.26621911    -0.74500
C64         C  0.07959737  0.57060855  0.32449662     0.77300
C65         C  0.08918538  0.62113022  0.25193759     0.77800
C66         C  0.07661296  0.56557059  0.18968632     0.76700
C67         C  0.03866372  0.58445360  0.18293471     0.77100
C68         C  0.03720398  0.58886370  0.32218312     0.78200
C69         C  0.02712062  0.54168324  0.26705464     0.77300
Zn70       Zn  0.16506322  0.74163215  0.17444059     1.49700
Zn71       Zn  0.15605178  0.76453827  0.20020064     1.49400
Zn72       Zn  0.15141621  0.75720292  0.12365406     1.49100
Zn73       Zn  0.12850994  0.73400434  0.17852639     1.49500
O74         O  0.14998205  0.74837963  0.16799028    -1.84000
O75         O  0.18050636  0.75410205  0.21375881    -0.74600
O76         O  0.15079918  0.77998610  0.18372280    -0.74400
O77         O  0.16966467  0.75911853  0.09848008    -0.73900
O78         O  0.17870504  0.77524579  0.20863098    -0.74600
O79         O  0.17965050  0.74837038  0.13244349    -0.74200
O80         O  0.15492181  0.77873860  0.12838439    -0.74800
O81         O  0.11454498  0.73505179  0.14003546    -0.74200
O82         O  0.14531209  0.75701365  0.24442575    -0.75000
O83         O  0.13125167  0.74621319  0.09734029    -0.74300
O84         O  0.12219067  0.73998375  0.22335770    -0.74800
O85         O  0.12748528  0.71330659  0.18671388    -0.74700
O86         O  0.15207262  0.71802299  0.18433716    -0.74500
C87         C  0.18593482  0.76860015  0.21905105     0.77300
C88         C  0.15265465  0.78535950  0.15372647     0.77800
C89         C  0.18017534  0.75585977  0.10551196     0.76700
C90         C  0.11754656  0.74016020  0.10935272     0.77100
C91         C  0.13069003  0.74874068  0.24771518     0.78200
C92         C  0.13745783  0.70881397  0.18922556     0.77300
Zn93       Zn  0.60280932  0.75984082  0.41751319     1.49700
Zn94       Zn  0.59732425  0.73195233  0.46358401     1.49400
Zn95       Zn  0.59883633  0.73008894  0.37726594     1.49100
Zn96       Zn  0.62882413  0.75045039  0.42257049     1.49500
O97         O  0.60657571  0.74264738  0.41999310    -1.84000
O98         O  0.59135198  0.76158309  0.45703386    -0.74600
O99         O  0.58283462  0.70925504  0.45144831    -0.74400
O100        O  0.58861013  0.73930536  0.34448942    -0.73900
O101        O  0.58639590  0.74172363  0.49013882    -0.74600
O102        O  0.59195498  0.75956256  0.37514863    -0.74200
O103        O  0.58418812  0.70756991  0.39434487    -0.74800
O104        O  0.63703717  0.74399289  0.38395023    -0.74200
O105        O  0.61417543  0.73386633  0.49733579    -0.75000
O106        O  0.61714306  0.73111978  0.34852560    -0.74300
O107        O  0.63531224  0.74512075  0.46539424    -0.74800
O108        O  0.64084829  0.77338749  0.42128215    -0.74700
O109        O  0.62259110  0.77971539  0.41688318    -0.74500
C110        C  0.58586193  0.75403774  0.48438853     0.77300
C111        C  0.57920031  0.70124807  0.42372416     0.77800
C112        C  0.58743911  0.75148065  0.34792032     0.76700
C113        C  0.63165318  0.73724123  0.35545170     0.77100
C114        C  0.62876980  0.73947144  0.49365425     0.78200
C115        C  0.63677962  0.78349385  0.41864128     0.77300
Zn116      Zn  0.50824668  0.57843903  0.48580129     1.49700
Zn117      Zn  0.52153273  0.56606866  0.42915264     1.49400
Zn118      Zn  0.54439943  0.58761415  0.48635023     1.49100
Zn119      Zn  0.52194859  0.55692173  0.01526652     1.49500
O120        O  0.52728305  0.57413896  0.98640780    -1.84000
O121        O  0.49090513  0.56875897  0.44929531    -0.74600
O122        O  0.54179685  0.57895934  0.40469989    -0.74400
O123        O  0.54518896  0.60813396  0.47988661    -0.73900
O124        O  0.50294566  0.56499469  0.40571274    -0.74600
O125        O  0.52035462  0.60239884  0.48241160    -0.74200
O126        O  0.55736544  0.58518504  0.45003338    -0.74800
O127        O  0.53755190  0.56312237  0.05288907    -0.74200
O128        O  0.51833772  0.54467014  0.42446699    -0.75000
O129        O  0.55757026  0.58613455  0.03905530    -0.74300
O130        O  0.52263145  0.54000225  0.98888653    -0.74800
O131        O  0.50121035  0.54982421  0.03746969    -0.74700
O132        O  0.50203658  0.57250047  0.04206699    -0.74500
C133        C  0.49095772  0.56451539  0.41846143     0.77300
C134        C  0.55486573  0.58246386  0.41808817     0.77800
C135        C  0.53488284  0.61217805  0.47856468     0.76700
C136        C  0.55106810  0.57450504  0.05918169     0.77100
C137        C  0.52350873  0.53805070  0.95694716     0.78200
C138        C  0.49636504  0.55830348  0.05075258     0.77300
Zn139      Zn  0.55041545  0.94635342  0.24927105     1.49700
Zn140      Zn  0.52605950  0.94418484  0.29915079     1.49400
Zn141      Zn  0.52133168  0.94551818  0.21915482     1.49100
Zn142      Zn  0.51512954  0.91423776  0.25070849     1.49500
O143        O  0.52813302  0.93696659  0.25440521    -1.84000
O144        O  0.56236934  0.96147350  0.28875449    -0.74600
O145        O  0.52399585  0.96279191  0.29404679    -0.74400
O146        O  0.53648375  0.95476789  0.18084799    -0.73900
O147        O  0.54484140  0.95208049  0.32982851    -0.74600
O148        O  0.55836774  0.96010494  0.20737311    -0.74200
O149        O  0.52064550  0.96337806  0.23801942    -0.74800
O150        O  0.49964659  0.90794027  0.20930271    -0.74200
O151        O  0.50686250  0.92833853  0.32152519    -0.75000
O152        O  0.50053174  0.93031883  0.19999714    -0.74300
O153        O  0.49981403  0.90638105  0.29273792    -0.74800
O154        O  0.53089048  0.90606431  0.24416651    -0.74700
O155        O  0.55394565  0.92819013  0.24398655    -0.74500
C156        C  0.55842030  0.96183737  0.31956403     0.77300
C157        C  0.52222692  0.96913571  0.26776494     0.77800
C158        C  0.55123260  0.96174030  0.18215441     0.76700
C159        C  0.49415689  0.91577363  0.19533052     0.77100
C160        C  0.49756759  0.91396343  0.31654798     0.78200
C161        C  0.54583850  0.91336673  0.24147525     0.77300
Zn162      Zn  0.58794758  0.83341221  0.17342275     1.49700
Zn163      Zn  0.62087681  0.84065141  0.14680389     1.49400
Zn164      Zn  0.61730654  0.86824599  0.16908995     1.49100
Zn165      Zn  0.61526151  0.84453163  0.22544336     1.49500
O166        O  0.61023757  0.84672462  0.17813256    -1.84000
O167        O  0.58235860  0.82191749  0.12705350    -0.74600
O168        O  0.63786623  0.85927787  0.12174836    -0.74400
O169        O  0.59874691  0.87143148  0.17730817    -0.73900
O170        O  0.60565403  0.82550250  0.11325999    -0.74600
O171        O  0.57827264  0.84743905  0.18220450    -0.74200
O172        O  0.62860042  0.87543381  0.12271921    -0.74800
O173        O  0.62956605  0.86544548  0.24747606    -0.74200
O174        O  0.62935415  0.82903882  0.17143983    -0.75000
O175        O  0.63450277  0.88111339  0.20307237    -0.74300
O176        O  0.62719221  0.83341406  0.22632334    -0.74800
O177        O  0.59645122  0.82931256  0.25263459    -0.74700
O178        O  0.58174176  0.81587928  0.20835924    -0.74500
C179        C  0.59108164  0.81904699  0.10815223     0.77300
C180        C  0.63836617  0.87166821  0.11174271     0.77800
C181        C  0.58425363  0.86226496  0.18321024     0.76700
C182        C  0.63763603  0.87858374  0.23312603     0.77100
C183        C  0.63115798  0.82725190  0.20297675     0.78200
C184        C  0.58613498  0.81649153  0.23931412     0.77300
Zn185      Zn  0.40943423  0.92263055  0.03966251     1.49700
Zn186      Zn  0.43951357  0.92840280  0.00116636     1.49400
Zn187      Zn  0.41149025  0.92479806  0.45711535     1.49100
Zn188      Zn  0.42892127  0.95396657  0.00064021     1.49500
O189        O  0.42173306  0.93260497  0.50171661    -1.84000
O190        O  0.41837132  0.91163865  0.07011619    -0.74600
O191        O  0.44106418  0.91805028  0.46244117    -0.74400
O192        O  0.38870287  0.91038565  0.46792254    -0.73900
O193        O  0.44099821  0.91929061  0.04483589    -0.74600
O194        O  0.38732463  0.90865640  0.01910711    -0.74200
O195        O  0.42193113  0.91503938  0.42825430    -0.74800
O196        O  0.41955471  0.96117807  0.46484246    -0.74200
O197        O  0.45862103  0.94819485  0.99491415    -0.75000
O198        O  0.41315043  0.94240889  0.42689889    -0.74300
O199        O  0.45123287  0.96569584  0.98988824    -0.74800
O200        O  0.42616698  0.96147518  0.04578038    -0.74700
O201        O  0.41091874  0.93968284  0.07343633    -0.74500
C202        C  0.43178975  0.91278316  0.06955749     0.77300
C203        C  0.43395227  0.91384451  0.43389027     0.77800
C204        C  0.38040565  0.90610971  0.49502238     0.76700
C205        C  0.41598964  0.95604162  0.43451141     0.77100
C206        C  0.46160028  0.96187830  0.98882806     0.78200
C207        C  0.41872211  0.95452497  0.07238222     0.77300
Zn208      Zn  0.25978727  0.85316671  0.48029821     1.49700
Zn209      Zn  0.23047727  0.83152876  0.43690094     1.49400
Zn210      Zn  0.24464168  0.86753549  0.43766442     1.49100
Zn211      Zn  0.26108537  0.85397200  0.39452414     1.49500
O212        O  0.24933134  0.85115241  0.43655984    -1.84000
O213        O  0.25062448  0.83238047  0.50644671    -0.74600
O214        O  0.21237314  0.83403706  0.44860505    -0.74400
O215        O  0.25811586  0.88431637  0.46970642    -0.73900
O216        O  0.23074140  0.81758037  0.47231817    -0.74600
O217        O  0.25826300  0.86926134  0.51074485    -0.74200
O218        O  0.22328306  0.85958515  0.45396383    -0.74800
O219        O  0.25920564  0.86937470  0.36109461    -0.74200
O220        O  0.22759587  0.82042310  0.39311574    -0.75000
O221        O  0.24572669  0.87679926  0.39277366    -0.74300
O222        O  0.25065848  0.83310749  0.36746973    -0.74800
O223        O  0.28386410  0.86201065  0.41122922    -0.74700
O224        O  0.28214325  0.86122576  0.46845857    -0.74500
C225        C  0.23879393  0.81922826  0.49888771     0.77300
C226        C  0.21160211  0.84603456  0.45622744     0.77800
C227        C  0.25858053  0.88164249  0.50120865     0.76700
C228        C  0.25197259  0.87688259  0.36455240     0.77100
C229        C  0.23674597  0.82156226  0.36923499     0.78200
C230        C  0.29017263  0.86435778  0.44115374     0.77300
Zn231      Zn  0.25700185  0.39737828  0.21388054     1.49700
Zn232      Zn  0.23537375  0.40146016  0.16307468     1.49400
Zn233      Zn  0.26115938  0.39716119  0.12961116     1.49100
Zn234      Zn  0.23308344  0.36934997  0.16727653     1.49500
O235        O  0.24720592  0.39117242  0.16901350    -1.84000
O236        O  0.24696006  0.40748598  0.24351032    -0.74600
O237        O  0.24691864  0.41967218  0.13414499    -0.74400
O238        O  0.28337085  0.41125063  0.14886263    -0.73900
O239        O  0.23055191  0.40819484  0.20627460    -0.74600
O240        O  0.28024014  0.41149525  0.20557867    -0.74200
O241        O  0.25349525  0.40785495  0.09560731    -0.74800
O242        O  0.23880495  0.35898073  0.13191464    -0.74200
O243        O  0.21478768  0.38774574  0.14093212    -0.75000
O244        O  0.25900326  0.37756541  0.10460297    -0.74300
O245        O  0.21195678  0.36483305  0.15405106    -0.74800
O246        O  0.23363701  0.35921841  0.21022340    -0.74700
O247        O  0.25352993  0.37801954  0.23922533    -0.74500
C248        C  0.23603425  0.41026693  0.23634255     0.77300
C249        C  0.24777645  0.41644159  0.10319147     0.77800
C250        C  0.28900473  0.41561067  0.17919065     0.76700
C251        C  0.24903507  0.36317824  0.10887646     0.77100
C252        C  0.20665975  0.37306945  0.14190434     0.78200
C253        C  0.24323542  0.36373722  0.23509013     0.77300
Zn254      Zn  0.41014298  0.46704393  0.20362260     1.49700
Zn255      Zn  0.42509546  0.45227174  0.24917220     1.49400
Zn256      Zn  0.43835538  0.48857526  0.25127353     1.49100
Zn257      Zn  0.40628961  0.46511195  0.28825404     1.49500
O258        O  0.41963914  0.46837406  0.24831813    -1.84000
O259        O  0.41278584  0.45217905  0.17177145    -0.74600
O260        O  0.44785655  0.46154538  0.25506577    -0.74400
O261        O  0.44312255  0.50074954  0.20781904    -0.73900
O262        O  0.41992311  0.43965137  0.20730325    -0.74600
O263        O  0.42137387  0.48747830  0.17753275    -0.74200
O264        O  0.45683858  0.48667173  0.26304315    -0.74800
O265        O  0.41465040  0.48585516  0.31559733    -0.74200
O266        O  0.41677550  0.43819728  0.28800173    -0.75000
O267        O  0.43647843  0.50118130  0.28768644    -0.74300
O268        O  0.40752413  0.44937617  0.32212984    -0.74800
O269        O  0.38413307  0.45735073  0.26820820    -0.74700
O270        O  0.38727606  0.45958177  0.21138368    -0.74500
C271        C  0.41666794  0.44201462  0.17745641     0.77300
C272        C  0.45890162  0.47511749  0.26187752     0.77800
C273        C  0.43508180  0.49910444  0.18114014     0.76700
C274        C  0.42709094  0.49898445  0.31177033     0.77100
C275        C  0.41196315  0.43948938  0.31705311     0.78200
C276        C  0.37857960  0.45598587  0.23776946     0.77300
Zn277      Zn  0.93050988  0.20509408  0.08302302     1.49700
Zn278      Zn  0.89759653  0.17649782  0.09553556     1.49400
Zn279      Zn  0.91173405  0.18249364  0.02268140     1.49100
Zn280      Zn  0.92392850  0.16973566  0.08210665     1.49500
O281        O  0.91642940  0.18367068  0.07126051    -1.84000
O282        O  0.92463310  0.21040115  0.12786087    -0.74600
O283        O  0.88141002  0.17622227  0.06522007    -0.74400
O284        O  0.91830615  0.20358178  0.00245507    -0.73900
O285        O  0.90103420  0.19006788  0.13593992    -0.74600
O286        O  0.92723916  0.21879057  0.04858122    -0.74200
O287        O  0.88867416  0.17161848  0.01493843    -0.74800
O288        O  0.91778195  0.15490204  0.04121603    -0.74200
O289        O  0.88964113  0.15504265  0.11299008    -0.75000
O290        O  0.91836582  0.16930106  0.99738634    -0.74300
O291        O  0.91168639  0.15509902  0.12201107    -0.74800
O292        O  0.94751513  0.18325691  0.09147457    -0.74700
O293        O  0.95206777  0.20769958  0.08990817    -0.74500
C294        C  0.91227456  0.20317928  0.14522792     0.77300
C295        C  0.87873248  0.17237530  0.03380007     0.77800
C296        C  0.92195482  0.21626684  0.01793143     0.76700
C297        C  0.91602476  0.15645408  0.00939082     0.77100
C298        C  0.89701163  0.14896901  0.12603888     0.78200
C299        C  0.95675577  0.19797052  0.09404098     0.77300
Zn300      Zn  0.07744673  0.26201249  0.12120101     1.49700
Zn301      Zn  0.07329439  0.26480450  0.20489369     1.49400
Zn302      Zn  0.10527605  0.27544328  0.17272479     1.49100
Zn303      Zn  0.08885682  0.29374882  0.15805230     1.49500
O304        O  0.08573426  0.27327484  0.16448787    -1.84000
O305        O  0.05421913  0.24713420  0.13032131    -0.74600
O306        O  0.08289181  0.25447498  0.23430998    -0.74400
O307        O  0.10847007  0.26120526  0.14429370    -0.73900
O308        O  0.05120009  0.25013902  0.18626927    -0.74600
O309        O  0.09008367  0.25114828  0.10457850    -0.74200
O310        O  0.10756873  0.27002376  0.21936686    -0.74800
O311        O  0.11032946  0.30818630  0.14032344    -0.74200
O312        O  0.07478483  0.28266947  0.23519434    -0.75000
O313        O  0.12220048  0.29577952  0.15866016    -0.74300
O314        O  0.08636279  0.30303767  0.20109271    -0.74800
O315        O  0.07431044  0.29250670  0.12245253    -0.74700
O316        O  0.07987452  0.27882652  0.08645803    -0.74500
C317        C  0.04553839  0.24431577  0.15665122     0.77300
C318        C  0.09745149  0.25948683  0.23821516     0.77800
C319        C  0.10259318  0.25271496  0.11804706     0.76700
C320        C  0.12245346  0.30713274  0.14365439     0.77100
C321        C  0.08085397  0.29725169  0.23011878     0.78200
C322        C  0.07765306  0.29020329  0.09253278     0.77300
Zn323      Zn  0.20292259  0.28878062  0.42539016     1.49700
Zn324      Zn  0.16766702  0.26440017  0.42597080     1.49400
Zn325      Zn  0.18933495  0.25879692  0.37748198     1.49100
Zn326      Zn  0.19120329  0.25686561  0.46277721     1.49500
O327        O  0.18789935  0.26674069  0.42281110    -1.84000
O328        O  0.19318180  0.30127543  0.43908805    -0.74600
O329        O  0.15635598  0.25824732  0.38269525    -0.74400
O330        O  0.20507431  0.27646617  0.34745677    -0.73900
O331        O  0.16824742  0.28355291  0.44093991    -0.74600
O332        O  0.21312350  0.29698767  0.38146559    -0.74200
O333        O  0.16880883  0.25009701  0.34947613    -0.74800
O334        O  0.19966869  0.24298868  0.44233007    -0.74200
O335        O  0.15450035  0.24893887  0.45907023    -0.75000
O336        O  0.19684342  0.24343989  0.38545123    -0.74300
O337        O  0.17031850  0.24445297  0.49074140    -0.74800
O338        O  0.20701822  0.27470340  0.49559426    -0.74700
O339        O  0.21934308  0.29430315  0.45985144    -0.74500
C340        C  0.17915559  0.29744848  0.44464042     0.77300
C341        C  0.15737718  0.25226273  0.35492533     0.77800
C342        C  0.21307459  0.29107521  0.35266835     0.76700
C343        C  0.20104173  0.23883625  0.41180440     0.77100
C344        C  0.15685747  0.24275867  0.48478617     0.78200
C345        C  0.21749602  0.28880674  0.48970592     0.77300
Zn346      Zn  0.26476565  0.18665183  0.29597691     1.49700
Zn347      Zn  0.29346909  0.18782378  0.33296355     1.49400
Zn348      Zn  0.26608076  0.18252383  0.38111905     1.49100
Zn349      Zn  0.26172724  0.15650445  0.33078379     1.49500
O350        O  0.27137866  0.17886900  0.33471437    -1.84000
O351        O  0.28440135  0.20400934  0.27042459    -0.74600
O352        O  0.30396394  0.20278182  0.37025284    -0.74400
O353        O  0.25081904  0.19039585  0.37435606    -0.73900
O354        O  0.30290114  0.20015015  0.29151486    -0.74600
O355        O  0.25055066  0.19434095  0.31790936    -0.74200
O356        O  0.28560319  0.19993187  0.40615864    -0.74800
O357        O  0.24559570  0.14578412  0.36560170    -0.74200
O358        O  0.29933597  0.17181189  0.33743836    -0.75000
O359        O  0.25715135  0.16176962  0.40911099    -0.74300
O360        O  0.27720586  0.14926852  0.33647323    -0.74800
O361        O  0.25202752  0.14860678  0.28594253    -0.74700
O362        O  0.25374111  0.16894565  0.25900488    -0.74500
C363        C  0.29848795  0.20681342  0.27050632     0.77300
C364        C  0.29990630  0.20663387  0.39751995     0.77800
C365        C  0.24622483  0.19502284  0.34866050     0.76700
C366        C  0.24876995  0.14794680  0.39727344     0.77100
C367        C  0.29193225  0.15710999  0.33875508     0.78200
C368        C  0.25004817  0.15464202  0.25943117     0.77300
Zn369      Zn  0.90060154  0.72033211  0.32366845     1.49700
Zn370      Zn  0.92810261  0.73415354  0.37299200     1.49400
Zn371      Zn  0.91883110  0.70315924  0.33180229     1.49100
Zn372      Zn  0.93328913  0.73378254  0.29111075     1.49500
O373        O  0.92056699  0.72322529  0.33002928    -1.84000
O374        O  0.89298859  0.72477958  0.36620043    -0.74600
O375        O  0.92355733  0.71788054  0.40932662    -0.74400
O376        O  0.89770724  0.68648501  0.31651881    -0.73900
O377        O  0.91491910  0.74386081  0.38842291    -0.74600
O378        O  0.88534371  0.69929776  0.30613588    -0.74200
O379        O  0.92084956  0.69759798  0.37951085    -0.74800
O380        O  0.93118260  0.71626676  0.25869763    -0.74200
O381        O  0.95170218  0.74867271  0.36719039    -0.75000
O382        O  0.93296019  0.70149438  0.29846512    -0.74300
O383        O  0.95531842  0.74646957  0.31122778    -0.74800
O384        O  0.92498054  0.74715171  0.26788159    -0.74700
O385        O  0.90169207  0.73580589  0.29193421    -0.74500
C386        C  0.90004886  0.73648404  0.38599597     0.77300
C387        C  0.92091772  0.70397937  0.40783608     0.77800
C388        C  0.88575036  0.68678371  0.30631382     0.76700
C389        C  0.93162792  0.70410628  0.26716472     0.77100
C390        C  0.96068379  0.75140752  0.34145608     0.78200
C391        C  0.91159679  0.74585740  0.27197922     0.77300
Zn392      Zn  0.08194351  0.82266858  0.42023345     1.49700
Zn393      Zn  0.09223859  0.80997433  0.48355136     1.49400
Zn394      Zn  0.07417363  0.78667161  0.42459040     1.49100
Zn395      Zn  0.10795008  0.81472936  0.40935664     1.49500
O396        O  0.08893611  0.80844150  0.43378170    -1.84000
O397        O  0.08867817  0.83932390  0.45763406    -0.74600
O398        O  0.07990100  0.78998722  0.50897816    -0.74400
O399        O  0.05338771  0.78506075  0.41225843    -0.73900
O400        O  0.09140255  0.82800656  0.50395783    -0.74600
O401        O  0.05843232  0.80965051  0.41096755    -0.74200
O402        O  0.07418614  0.77353013  0.46569313    -0.74800
O403        O  0.10579052  0.79727158  0.37929277    -0.74200
O404        O  0.11385233  0.81496910  0.49415582    -0.75000
O405        O  0.08111632  0.77861060  0.38482853    -0.74300
O406        O  0.12446159  0.81898552  0.44252555    -0.74800
O407        O  0.11515734  0.83437383  0.38185414    -0.74700
O408        O  0.09360122  0.83567641  0.37839602    -0.74500
C409        C  0.09214048  0.83969163  0.48921334     0.77300
C410        C  0.07661057  0.77667891  0.49765482     0.77800
C411        C  0.04902982  0.79501590  0.40759186     0.76700
C412        C  0.09452221  0.78381717  0.37179177     0.77100
C413        C  0.12531392  0.81849083  0.47482650     0.78200
C414        C  0.10769218  0.84058447  0.36991387     0.77300
Zn415      Zn  0.28107063  0.08847631  0.02173370     1.49700
Zn416      Zn  0.28329944  0.06811661  0.08058117     1.49400
Zn417      Zn  0.29131080  0.10194672  0.09735087     1.49100
Zn418      Zn  0.25591586  0.07715176  0.08248310     1.49500
O419        O  0.27758495  0.08371031  0.07090760    -1.84000
O420        O  0.28921074  0.07625343  0.99723077    -0.74600
O421        O  0.29722032  0.07362741  0.12207834    -0.74400
O422        O  0.30598180  0.11872433  0.06753573    -0.73900
O423        O  0.29730145  0.06829590  0.04160350    -0.74600
O424        O  0.29837432  0.11037700  0.01437828    -0.74200
O425        O  0.30473939  0.09846888  0.13034166    -0.74800
O426        O  0.25450114  0.09112282  0.12035202    -0.74200
O427        O  0.26353777  0.04755186  0.09051253    -0.75000
O428        O  0.27910028  0.11021998  0.12025705    -0.74300
O429        O  0.24457473  0.05339402  0.09412733    -0.74800
O430        O  0.24676757  0.08337448  0.04246833    -0.74700
O431        O  0.26293729  0.08843304  0.99889970    -0.74500
C432        C  0.29806859  0.07177716  0.00999987     0.77300
C433        C  0.30572707  0.08655151  0.13712570     0.77800
C434        C  0.30732172  0.12076115  0.03551240     0.76700
C435        C  0.26494519  0.10502880  0.12811561     0.77100
C436        C  0.24936975  0.04361022  0.09625486     0.78200
C437        C  0.25115821  0.08823111  0.01206546     0.77300
Zn438      Zn  0.20511543  0.90516305  0.16444822     1.49700
Zn439      Zn  0.17055421  0.89712135  0.16863182     1.49400
Zn440      Zn  0.19784229  0.92673404  0.20883902     1.49100
Zn441      Zn  0.19460506  0.92442534  0.12337712     1.49500
O442        O  0.19184980  0.91389661  0.16701643    -1.84000
O443        O  0.19364427  0.88348087  0.14748608    -0.74600
O444        O  0.16185185  0.89564342  0.21482739    -0.74400
O445        O  0.21459713  0.92438133  0.23666471    -0.73900
O446        O  0.16920427  0.87685890  0.15776691    -0.74600
O447        O  0.21484721  0.90521897  0.20831177    -0.74200
O448        O  0.17901344  0.91702184  0.24287535    -0.74800
O449        O  0.20285919  0.94709901  0.13478934    -0.74200
O450        O  0.15686661  0.89871645  0.13334152    -0.75000
O451        O  0.20582948  0.94965937  0.19180535    -0.74300
O452        O  0.17402104  0.91497515  0.09609709    -0.74800
O453        O  0.21049231  0.92237847  0.09326390    -0.74700
O454        O  0.22232416  0.91628044  0.13290288    -0.74500
C455        C  0.17928374  0.87342434  0.14812347     0.77300
C456        C  0.16614108  0.90402081  0.24174070     0.77800
C457        C  0.21876915  0.91417388  0.23410996     0.76700
C458        C  0.20705141  0.95556706  0.16184322     0.77100
C459        C  0.16003476  0.90505181  0.10408079     0.78200
C460        C  0.22126792  0.91972651  0.10231792     0.77300
Zn461      Zn  0.81622361  0.73566316  0.14688660     1.49700
Zn462      Zn  0.84104810  0.73100356  0.10890556     1.49400
Zn463      Zn  0.80684263  0.70554737  0.10544320     1.49100
Zn464      Zn  0.81745354  0.73570797  0.06140212     1.49500
O465        O  0.82038767  0.72761138  0.10501571    -1.84000
O466        O  0.83623128  0.74763065  0.17683121    -0.74600
O467        O  0.84187843  0.71233611  0.12452151    -0.74400
O468        O  0.78835626  0.69941604  0.13372433    -0.73900
O469        O  0.85363040  0.74708149  0.14257200    -0.74600
O470        O  0.79929958  0.71728076  0.17451949    -0.74200
O471        O  0.81701465  0.69435272  0.12511557    -0.74800
O472        O  0.80301508  0.71729522  0.02847965    -0.74200
O473        O  0.85209473  0.73833035  0.06598954    -0.75000
O474        O  0.79948491  0.69720477  0.05924098    -0.74300
O475        O  0.83891753  0.74666519  0.03522497    -0.74800
O476        O  0.80716821  0.74915206  0.07494033    -0.74700
O477        O  0.80767563  0.74950470  0.13235876    -0.74500
C478        C  0.85027225  0.75135404  0.17020588     0.77300
C479        C  0.83117689  0.69856428  0.13065277     0.77800
C480        C  0.78861455  0.70387540  0.16427968     0.76700
C481        C  0.79788787  0.70272234  0.03138763     0.77100
C482        C  0.85084624  0.74508452  0.03984328     0.78200
C483        C  0.80417306  0.75332693  0.10393694     0.77300
Zn484      Zn  0.72242166  0.78527891  0.17600399     1.49700
Zn485      Zn  0.71406178  0.81095727  0.16179389     1.49400
Zn486      Zn  0.72480184  0.80762075  0.23625287     1.49100
Zn487      Zn  0.74953448  0.82201257  0.17468192     1.49500
O488        O  0.72807471  0.80661426  0.18670938    -1.84000
O489        O  0.70854694  0.77690189  0.13409030    -0.74600
O490        O  0.69870187  0.81105869  0.19323377    -0.74400
O491        O  0.71805850  0.78733199  0.25968870    -0.73900
O492        O  0.70087250  0.79413206  0.12809177    -0.74600
O493        O  0.70816278  0.77149605  0.21489950    -0.74200
O494        O  0.70637504  0.81025249  0.24606157    -0.74800
O495        O  0.75901625  0.83758256  0.21492998    -0.74200
O496        O  0.72574478  0.83146340  0.13803919    -0.75000
O497        O  0.74292976  0.82608136  0.25849624    -0.74300
O498        O  0.75013451  0.83643552  0.13551503    -0.74800
O499        O  0.76109716  0.80979377  0.16352902    -0.74700
O500        O  0.74243787  0.78474706  0.16586554    -0.74500
C501        C  0.69997116  0.78136152  0.11993296     0.77300
C502        C  0.69672431  0.81057712  0.22534942     0.77800
C503        C  0.70813956  0.77422177  0.24687406     0.76700
C504        C  0.75490144  0.83764373  0.24585265     0.77100
C505        C  0.73969182  0.83983936  0.12780967     0.78200
C506        C  0.75662179  0.79526133  0.16082286     0.77300
Zn507      Zn  0.81567422  0.06997845  0.38303451     1.49700
Zn508      Zn  0.83725971  0.09855331  0.33997514     1.49400
Zn509      Zn  0.81540236  0.06768811  0.29712292     1.49100
Zn510      Zn  0.80079426  0.08456710  0.33813428     1.49500
O511        O  0.81744273  0.07980445  0.33888900    -1.84000
O512        O  0.83621608  0.08009820  0.41131195    -0.74600
O513        O  0.84838135  0.10143305  0.29649091    -0.74400
O514        O  0.80765634  0.04496745  0.31455996    -0.73900
O515        O  0.85146152  0.09906103  0.37651288    -0.74600
O516        O  0.80867207  0.04784137  0.37163389    -0.74200
O517        O  0.83639900  0.07837536  0.27028714    -0.74800
O518        O  0.79147352  0.08227564  0.29190277    -0.74200
O519        O  0.83455259  0.11658820  0.35059581    -0.75000
O520        O  0.80042362  0.06951713  0.26196647    -0.74300
O521        O  0.80898308  0.10657344  0.35188611    -0.74800
O522        O  0.78422551  0.07261223  0.37199061    -0.74700
O523        O  0.79889182  0.07071106  0.41217239    -0.74500
C524        C  0.84948404  0.09175829  0.40422715     0.77300
C525        C  0.84755884  0.09249867  0.27227156     0.77800
C526        C  0.80565121  0.03930634  0.34497010     0.76700
C527        C  0.79251146  0.07640399  0.26385515     0.77100
C528        C  0.82269079  0.11795704  0.35565243     0.78200
C529        C  0.78668692  0.07098833  0.40319028     0.77300
Zn530      Zn  0.73926989  0.92019006  0.37783431     1.49700
Zn531      Zn  0.74125159  0.89568675  0.42407298     1.49400
Zn532      Zn  0.74285094  0.92470530  0.46349311     1.49100
Zn533      Zn  0.71223359  0.90009260  0.42670825     1.49500
O534        O  0.73429656  0.91071683  0.42333099    -1.84000
O535        O  0.74906203  0.91028922  0.34768837    -0.74600
O536        O  0.75070849  0.89582572  0.46852705    -0.74400
O537        O  0.75751348  0.94674389  0.44320211    -0.73900
O538        O  0.75554509  0.89826401  0.38621940    -0.74600
O539        O  0.75458399  0.94273388  0.38645923    -0.74200
O540        O  0.75299943  0.91620914  0.49715958    -0.74800
O541        O  0.70491957  0.90313388  0.47071110    -0.74200
O542        O  0.72349210  0.87392355  0.41874491    -0.75000
O543        O  0.72525170  0.92347822  0.49454489    -0.74300
O544        O  0.70351120  0.87778783  0.42088933    -0.74800
O545        O  0.70229697  0.90632832  0.39206435    -0.74700
O546        O  0.72006657  0.91849477  0.35239819    -0.74500
C547        C  0.75544281  0.90233365  0.35552923     0.77300
C548        C  0.75422298  0.90405467  0.49549540     0.77800
C549        C  0.76065898  0.95177794  0.41226034     0.76700
C550        C  0.71085279  0.91301113  0.49470067     0.77100
C551        C  0.70896293  0.86878155  0.41826881     0.78200
C552        C  0.70616297  0.91282093  0.36318914     0.77300
Zn553      Zn  0.48571016  0.05158971  0.31184959     1.49700
Zn554      Zn  0.46021349  0.04834266  0.25874771     1.49400
Zn555      Zn  0.49601605  0.07732197  0.25617182     1.49100
Zn556      Zn  0.48677999  0.04357717  0.23256078     1.49500
O557        O  0.48214151  0.05529028  0.26421740    -1.84000
O558        O  0.46593909  0.04015114  0.33851935    -0.74600
O559        O  0.45827504  0.06773264  0.26540844    -0.74400
O560        O  0.51401406  0.08539735  0.29115581    -0.73900
O561        O  0.44849212  0.03298847  0.29648339    -0.74600
O562        O  0.50229620  0.07064908  0.33609509    -0.74200
O563        O  0.48274996  0.08775638  0.26261356    -0.74800
O564        O  0.50337475  0.05758983  0.20003505    -0.74200
O565        O  0.45057191  0.03517371  0.21442077    -0.75000
O566        O  0.50714857  0.08125107  0.20978936    -0.74300
O567        O  0.46772090  0.02738722  0.20708234    -0.74800
O568        O  0.49563928  0.03294302  0.25774567    -0.74700
O569        O  0.49456873  0.03751899  0.31300890    -0.74500
C570        C  0.45221246  0.03160957  0.32691272     0.77300
C571        C  0.46813100  0.08232003  0.26695237     0.77800
C572        C  0.51425380  0.08177828  0.32230805     0.76700
C573        C  0.51014705  0.07198109  0.19327723     0.77100
C574        C  0.45455369  0.02603153  0.20058635     0.78200
C575        C  0.49817136  0.03138999  0.28889624     0.77300
Zn576      Zn  0.39587804  0.15812551  0.33828195     1.49700
Zn577      Zn  0.40629324  0.13713501  0.37826948     1.49400
Zn578      Zn  0.37538342  0.12191325  0.33460426     1.49100
Zn579      Zn  0.40708439  0.14040566  0.29332967     1.49500
O580        O  0.39658824  0.13939221  0.33628258    -1.84000
O581        O  0.40929609  0.17143658  0.37456665    -0.74600
O582        O  0.38846375  0.12074430  0.40996804    -0.74400
O583        O  0.35969447  0.12867349  0.34273288    -0.73900
O584        O  0.41801265  0.15866100  0.40501067    -0.74600
O585        O  0.37492670  0.15411074  0.34855087    -0.74200
O586        O  0.37087781  0.10639009  0.37067102    -0.74800
O587        O  0.39105324  0.12567993  0.25844577    -0.74200
O588        O  0.42082117  0.12913467  0.36041215    -0.75000
O589        O  0.36995547  0.11156181  0.28948028    -0.74300
O590        O  0.42236517  0.13307190  0.30372799    -0.74800
O591        O  0.41663058  0.16189489  0.26990085    -0.74700
O592        O  0.40346665  0.17116408  0.29686865    -0.74500
C593        C  0.41735721  0.17096902  0.39907914     0.77300
C594        C  0.37521945  0.10902111  0.40176044     0.77800
C595        C  0.36158917  0.14202524  0.34891133     0.76700
C596        C  0.37685179  0.11501449  0.26090569     0.77100
C597        C  0.42594739  0.12829440  0.33070286     0.78200
C598        C  0.41250737  0.17208882  0.27306814     0.77300
Zn599      Zn  0.51089214  0.42744552  0.98431660     1.49700
Zn600      Zn  0.48087163  0.42969505  0.97634964     1.49400
Zn601      Zn  0.48027840  0.40015338  0.45213520     1.49100
Zn602      Zn  0.48118816  0.40683415  0.02988389     1.49500
O603        O  0.48817185  0.41563921  0.98482578    -1.84000
O604        O  0.51910492  0.44942551  0.96884480    -0.74600
O605        O  0.46243823  0.42054454  0.45280613    -0.74400
O606        O  0.49938482  0.40850724  0.41917062    -0.73900
O607        O  0.49737288  0.44972440  0.95834555    -0.74600
O608        O  0.51899795  0.41906212  0.45632308    -0.74200
O609        O  0.46205755  0.40081559  0.42588545    -0.74800
O610        O  0.47185942  0.38334947  0.02504515    -0.74200
O611        O  0.47219746  0.43369377  0.01774368    -0.75000
O612        O  0.47248706  0.37809532  0.47215183    -0.74300
O613        O  0.46541414  0.41268951  0.04868806    -0.74800
O614        O  0.49975890  0.41631556  0.06359200    -0.74700
O615        O  0.52041017  0.42936666  0.03059904    -0.74500
C616        C  0.51209921  0.45634517  0.95853789     0.77300
C617        C  0.45678263  0.41008426  0.42997375     0.77800
C618        C  0.51404119  0.41576721  0.42565770     0.76700
C619        C  0.46983650  0.37397947  0.00037063     0.77100
C620        C  0.46468532  0.42487469  0.04235359     0.78200
C621        C  0.51445706  0.42504443  0.06006833     0.77300
Zn622      Zn  0.40483367  0.25870224  0.12254034     1.49700
Zn623      Zn  0.40536755  0.25326156  0.03813871     1.49400
Zn624      Zn  0.39392672  0.22614217  0.09061483     1.49100
Zn625      Zn  0.37474798  0.24132572  0.07646630     1.49500
O626        O  0.39565937  0.24555046  0.08246965    -1.84000
O627        O  0.41959721  0.28099179  0.10138998    -0.74600
O628        O  0.41519800  0.24025804  0.01914156    -0.74400
O629        O  0.40070081  0.22449243  0.13648608    -0.73900
O630        O  0.42055188  0.27647126  0.04531993    -0.74600
O631        O  0.41557641  0.24918178  0.15267159    -0.74200
O632        O  0.40745961  0.22286545  0.06036154    -0.74800
O633        O  0.36112211  0.21995540  0.05713361    -0.74200
O634        O  0.38785423  0.25058170  0.00531871    -0.75000
O635        O  0.37340415  0.20844794  0.07791500    -0.74300
O636        O  0.37389866  0.25522441  0.04232514    -0.74800
O637        O  0.36577569  0.24280582  0.12027220    -0.74700
O638        O  0.38649187  0.25642906  0.15361803    -0.74500
C639        C  0.42449968  0.28589916  0.07080978     0.77300
C640        C  0.41444610  0.22816019  0.03240254     0.77800
C641        C  0.41096321  0.23468755  0.15615904     0.76700
C642        C  0.36218442  0.20792007  0.06128389     0.77100
C643        C  0.37627950  0.25237771  0.01200003     0.78200
C644        C  0.37167522  0.24897558  0.14903461     0.77300
Zn645      Zn  0.57109988  0.50995044  0.22595868     1.49700
Zn646      Zn  0.60242789  0.53680026  0.25262270     1.49400
Zn647      Zn  0.57941131  0.51309292  0.30520310     1.49100
Zn648      Zn  0.59545470  0.50090292  0.25336291     1.49500
O649        O  0.58725904  0.51502679  0.25856432    -1.84000
O650        O  0.57526102  0.52811406  0.19616226    -0.74600
O651        O  0.59970637  0.54888392  0.29118301    -0.74400
O652        O  0.55806403  0.51052124  0.30458026    -0.73900
O653        O  0.59952834  0.54635538  0.20827239    -0.74600
O654        O  0.55165947  0.50410849  0.24997843    -0.74200
O655        O  0.59229141  0.53216358  0.33391836    -0.74800
O656        O  0.58544488  0.48365780  0.28978999    -0.74200
O657        O  0.62341057  0.53868900  0.25849156    -0.75000
O658        O  0.57603134  0.49350499  0.32753304    -0.74300
O659        O  0.61949417  0.51453177  0.25976336    -0.74800
O660        O  0.58757277  0.48826592  0.20805165    -0.74700
O661        O  0.56737755  0.49157053  0.19816410    -0.74500
C662        C  0.58691652  0.54157148  0.19128589     0.77300
C663        C  0.59644829  0.54562975  0.32264947     0.77800
C664        C  0.54815012  0.50559399  0.28037901     0.76700
C665        C  0.57805557  0.48253316  0.31727610     0.77100
C666        C  0.62852501  0.52931651  0.26216230     0.78200
C667        C  0.57479410  0.48450014  0.19248823     0.77300
Zn668      Zn  0.77699454  0.61415924  0.35428085     1.49700
Zn669      Zn  0.76459059  0.60761950  0.27665226     1.49400
Zn670      Zn  0.74909741  0.58149654  0.33116255     1.49100
Zn671      Zn  0.74596167  0.61207103  0.33460672     1.49500
O672        O  0.75917480  0.60373076  0.32492074    -1.84000
O673        O  0.79620462  0.62324547  0.32602079    -0.74600
O674        O  0.76297878  0.58909403  0.25152965    -0.74400
O675        O  0.75548030  0.57646021  0.37774411    -0.73900
O676        O  0.78731048  0.62273410  0.27340606    -0.74600
O677        O  0.77739261  0.59894088  0.38696543    -0.74200
O678        O  0.75879832  0.57372493  0.29590101    -0.74800
O679        O  0.72400986  0.59430315  0.33102673    -0.74200
O680        O  0.75421671  0.61788375  0.25251364    -0.75000
O681        O  0.72539511  0.57280161  0.32360518    -0.74300
O682        O  0.74864744  0.62754219  0.29804675    -0.74800
O683        O  0.75154087  0.62425297  0.37951868    -0.74700
O684        O  0.77659815  0.63142010  0.38187336    -0.74500
C685        C  0.79845373  0.62677499  0.29449334     0.77300
C686        C  0.76363329  0.57792844  0.26544759     0.77800
C687        C  0.76813903  0.58481209  0.39446206     0.76700
C688        C  0.71750120  0.57975975  0.32470390     0.77100
C689        C  0.75092140  0.62752082  0.26600457     0.78200
C690        C  0.76520921  0.63293083  0.39161240     0.77300
Zn691      Zn  0.84504715  0.58186333  0.08370826     1.49700
Zn692      Zn  0.84969017  0.61522560  0.07167448     1.49400
Zn693      Zn  0.85451283  0.60570017  0.14704902     1.49100
Zn694      Zn  0.87872906  0.61227605  0.09004198     1.49500
O695        O  0.85692019  0.60363889  0.09766498    -1.84000
O696        O  0.83290304  0.57930042  0.03882866    -0.74600
O697        O  0.84260097  0.62617590  0.10279813    -0.74400
O698        O  0.83773015  0.58566607  0.16684743    -0.73900
O699        O  0.83157505  0.60089736  0.04131516    -0.74600
O700        O  0.82740109  0.57218249  0.11877851    -0.74200
O701        O  0.84662766  0.62049439  0.15536892    -0.74800
O702        O  0.89091411  0.62642781  0.12961110    -0.74200
O703        O  0.86707454  0.63165105  0.04278873    -0.75000
O704        O  0.87487926  0.61593608  0.17335863    -0.74300
O705        O  0.88594769  0.62610077  0.04898219    -0.74800
O706        O  0.88308330  0.59482979  0.08369609    -0.74700
O707        O  0.86019977  0.57291451  0.07940249    -0.74500
C708        C  0.82703260  0.58745338  0.02884227     0.77300
C709        C  0.84227922  0.62747795  0.13506591     0.77800
C710        C  0.82612610  0.57530720  0.14997497     0.76700
C711        C  0.88797753  0.62608875  0.16136971     0.77100
C712        C  0.88052661  0.63395211  0.03537930     0.78200
C713        C  0.87516290  0.58012883  0.07949814     0.77300
Zn714      Zn  0.91817812  0.50206289  0.00278726     1.49700
Zn715      Zn  0.94246827  0.51307631  0.44132293     1.49400
Zn716      Zn  0.94836546  0.53689668  0.00363388     1.49100
Zn717      Zn  0.95149867  0.50706185  0.01429630     1.49500
O718        O  0.94007905  0.51515519  0.99106689    -1.84000
O719        O  0.90818975  0.48570022  0.45958400    -0.74600
O720        O  0.95552429  0.53416060  0.42065959    -0.74400
O721        O  0.92999014  0.53997620  0.01725288    -0.73900
O722        O  0.92231451  0.49999553  0.41607516    -0.74600
O723        O  0.90906691  0.51616144  0.01463593    -0.74200
O724        O  0.96078772  0.55056033  0.46423706    -0.74800
O725        O  0.96965031  0.52435881  0.03891753    -0.74200
O726        O  0.95423462  0.50175196  0.43218200    -0.75000
O727        O  0.96374534  0.54304308  0.04266090    -0.74300
O728        O  0.95986560  0.49803657  0.98164850    -0.74800
O729        O  0.93829006  0.48972390  0.04619981    -0.74700
O730        O  0.91506367  0.48768857  0.04336216    -0.74500
C731        C  0.91178961  0.48709800  0.42791073     0.77300
C732        C  0.96278041  0.54782959  0.43324736     0.77800
C733        C  0.91529456  0.53077356  0.02066191     0.76700
C734        C  0.97267954  0.53769936  0.04943243     0.77100
C735        C  0.96033007  0.49712976  0.94934204     0.78200
C736        C  0.92419087  0.48337630  0.05548660     0.77300
Zn737      Zn  0.83092601  0.22837867  0.33919067     1.49700
Zn738      Zn  0.86193050  0.22849589  0.34022716     1.49400
Zn739      Zn  0.85893381  0.25204932  0.29445986     1.49100
Zn740      Zn  0.86062741  0.25551471  0.37898193     1.49500
O741        O  0.85345038  0.24166559  0.33837209    -1.84000
O742        O  0.82378706  0.20647472  0.35593879    -0.74600
O743        O  0.87193430  0.22823888  0.29739462    -0.74400
O744        O  0.84058823  0.24230477  0.26079204    -0.73900
O745        O  0.84636835  0.20733303  0.35216749    -0.74600
O746        O  0.82124058  0.22544864  0.29307586    -0.74200
O747        O  0.87558361  0.24939405  0.27102820    -0.74800
O748        O  0.86841292  0.27790261  0.35992949    -0.74200
O749        O  0.87839916  0.23542623  0.37456339    -0.75000
O750        O  0.86690852  0.27468476  0.30302743    -0.74300
O751        O  0.87900677  0.25446256  0.40506982    -0.74800
O752        O  0.84090021  0.24650676  0.41050012    -0.74700
O753        O  0.82270789  0.23811609  0.37011771    -0.74500
C754        C  0.83194282  0.19998846  0.35842299     0.77300
C755        C  0.87806296  0.23810798  0.27372474     0.77800
C756        C  0.82651686  0.23141722  0.26408626     0.76700
C757        C  0.87034087  0.28342623  0.32944702     0.77100
C758        C  0.88433852  0.24540101  0.39839678     0.78200
C759        C  0.82651163  0.23976673  0.40151280     0.77300
Zn760      Zn  0.93003727  0.39947003  0.21662004     1.49700
Zn761      Zn  0.93143384  0.40311964  0.30233241     1.49400
Zn762      Zn  0.96086998  0.41920481  0.25805509     1.49100
Zn763      Zn  0.93613848  0.43013614  0.25546170     1.49500
O764        O  0.93902585  0.41254334  0.25758561    -1.84000
O765        O  0.91553541  0.37711351  0.23529640    -0.74600
O766        O  0.94911830  0.40401514  0.33164711    -0.74400
O767        O  0.96879050  0.41717012  0.21330074    -0.73900
O768        O  0.91650528  0.38059646  0.29220924    -0.74600
O769        O  0.94741575  0.40092870  0.18456119    -0.74200
O770        O  0.96615405  0.40787631  0.29119843    -0.74800
O771        O  0.95626300  0.44915103  0.26327570    -0.74200
O772        O  0.92133996  0.41373994  0.32965129    -0.75000
O773        O  0.97330835  0.44137055  0.27148526    -0.74300
O774        O  0.92268029  0.43087883  0.29205336    -0.74800
O775        O  0.92775550  0.43160408  0.21068257    -0.74700
O776        O  0.91986993  0.40880364  0.18526021    -0.74500
C777        C  0.91167945  0.37173118  0.26582849     0.77300
C778        C  0.96187426  0.40508619  0.32208527     0.77800
C779        C  0.96222993  0.40936859  0.18649819     0.76700
C780        C  0.96984585  0.45198200  0.27091706     0.77100
C781        C  0.91872029  0.42459966  0.32123176     0.78200
C782        C  0.92143120  0.42237062  0.18555580     0.77300
Zn783      Zn  0.57066583  0.06933850  0.49628154     1.49700
Zn784      Zn  0.57534515  0.04022303  0.49239695     1.49400
Zn785      Zn  0.59938828  0.07083375  0.45530876     1.49100
Zn786      Zn  0.59485571  0.06644941  0.03650192     1.49500
O787        O  0.58517768  0.06038412  0.99104165    -1.84000
O788        O  0.54906999  0.05174552  0.48889164    -0.74600
O789        O  0.58196896  0.03266833  0.45350202    -0.74400
O790        O  0.59179004  0.08302959  0.42476528    -0.73900
O791        O  0.55332984  0.03207503  0.48550032    -0.74600
O792        O  0.57387227  0.08324754  0.45805504    -0.74200
O793        O  0.59836872  0.05315598  0.42367559    -0.74800
O794        O  0.61758878  0.08074104  0.02798796    -0.74200
O795        O  0.57741803  0.02840200  0.03114687    -0.75000
O796        O  0.62161876  0.08416143  0.47528170    -0.74300
O797        O  0.59255345  0.04817636  0.06492560    -0.74800
O798        O  0.58451194  0.07560056  0.06679987    -0.74700
O799        O  0.56575990  0.07402877  0.03334555    -0.74500
C800        C  0.54419113  0.03740542  0.48488443     0.77300
C801        C  0.59062328  0.03843782  0.42776143     0.77800
C802        C  0.58131681  0.08666473  0.43016736     0.76700
C803        C  0.62655416  0.08607284  0.00212413     0.77100
C804        C  0.58458795  0.03361665  0.05929695     0.78200
C805        C  0.57248718  0.07687823  0.06231637     0.77300
Zn806      Zn  0.77320635  0.14505145  0.09528950     1.49700
Zn807      Zn  0.74727644  0.15299561  0.07301636     1.49400
Zn808      Zn  0.76035910  0.14022956  0.01820552     1.49100
Zn809      Zn  0.74061380  0.11803541  0.07916643     1.49500
O810        O  0.75542171  0.13913907  0.06689828    -1.84000
O811        O  0.77605176  0.16238769  0.12594312    -0.74600
O812        O  0.75663340  0.16983278  0.03640064    -0.74400
O813        O  0.78320116  0.14792486  0.01253392    -0.73900
O814        O  0.75537158  0.16518012  0.11826882    -0.74600
O815        O  0.79184624  0.15369346  0.06624117    -0.74200
O816        O  0.75791781  0.15642148  0.99240231    -0.74800
O817        O  0.74101953  0.10418887  0.04218629    -0.74200
O818        O  0.72342163  0.13947277  0.06724833    -0.75000
O819        O  0.74907132  0.11920620  0.99609697    -0.74300
O820        O  0.71922142  0.11565749  0.07817403    -0.74800
O821        O  0.74635633  0.11056645  0.12298901    -0.74700
O822        O  0.77180435  0.12706337  0.12308740    -0.74500
C823        C  0.76828112  0.16896655  0.13316992     0.77300
C824        C  0.75955735  0.16895643  0.00501635     0.77800
C825        C  0.79422141  0.15381118  0.03432152     0.76700
C826        C  0.74397130  0.10609439  0.01035306     0.77100
C827        C  0.71422679  0.12482589  0.07053379     0.78200
C828        C  0.76004969  0.11462457  0.13365168     0.77300
C829        C  0.64356823  0.09525192  0.00922876    -0.05100
C830        C  0.65409706  0.10630509  0.98626522    -0.05000
C831        C  0.67003187  0.11501160  0.99439524    -0.23200
C832        C  0.67575157  0.11258751  0.02532999     0.19000
C833        C  0.66527498  0.10114411  0.04797897     0.16200
C834        C  0.64935645  0.09273595  0.03998852    -0.18200
C835        C  0.67087457  0.09810712  0.07817264    -0.20000
C836        C  0.68675123  0.10621748  0.08581577    -0.12600
C837        C  0.69732845  0.11783217  0.06399159     0.04100
C838        C  0.69174276  0.12109282  0.03378478    -0.24700
H839        H  0.64997781  0.10839777  0.96234020     0.09100
H840        H  0.67788035  0.12358798  0.97645256     0.12800
H841        H  0.64264344  0.09015899  0.56541632     0.12700
H842        H  0.66467843  0.09749356  0.60363666     0.12400
H843        H  0.69083168  0.10332200  0.10878574     0.13000
H844        H  0.69988850  0.12969787  0.01625775     0.14900
C845        C  0.76910279  0.18352575  0.47970322    -0.05100
C846        C  0.76598547  0.18245248  0.44449074    -0.05000
C847        C  0.77533414  0.19482231  0.42301210    -0.23200
C848        C  0.78843705  0.20812200  0.43622711     0.19000
C849        C  0.79144833  0.20952769  0.47173779     0.16200
C850        C  0.78141244  0.19740772  0.49343792    -0.18200
C851        C  0.80514950  0.22238523  0.48447609    -0.20000
C852        C  0.81636737  0.23303442  0.46196658    -0.12600
C853        C  0.81374015  0.23137056  0.42648790     0.04100
C854        C  0.79927786  0.21932445  0.41411718    -0.24700
H855        H  0.75668519  0.17180732  0.43345639     0.09100
H856        H  0.77293809  0.19354657  0.39577537     0.12800
H857        H  0.78410085  0.19813119  0.52050984     0.12700
H858        H  0.80765711  0.22363044  0.51165680     0.12400
H859        H  0.82734945  0.24212705  0.47218909     0.13000
H860        H  0.79702761  0.21769519  0.38683249     0.14900
C861        C  0.77529045  0.18185583  0.15813251    -0.05100
C862        C  0.76776085  0.18152759  0.18859371    -0.05000
C863        C  0.77588058  0.19245539  0.21457355    -0.23200
C864        C  0.79157456  0.20387465  0.21020573     0.19000
C865        C  0.79883833  0.20486562  0.17861693     0.16200
C866        C  0.79066517  0.19382963  0.15289923    -0.18200
C867        C  0.81442563  0.21633213  0.17394464    -0.20000
C868        C  0.82312869  0.22600088  0.20115404    -0.12600
C869        C  0.81641433  0.22433048  0.23354499     0.04100
C870        C  0.80039739  0.21367449  0.23743690    -0.24700
H871        H  0.75593333  0.17234935  0.19300334     0.09100
H872        H  0.77008746  0.19159455  0.23855584     0.12800
H873        H  0.79647223  0.19413176  0.12923904     0.12700
H874        H  0.82009982  0.21732918  0.14971459     0.12400
H875        H  0.83539056  0.23405473  0.19740902     0.13000
H876        H  0.79502409  0.21231972  0.26221915     0.14900
C877        C  0.90201532  0.35467653  0.27178422    -0.05100
C878        C  0.89608520  0.34403389  0.24439091    -0.05000
C879        C  0.88818153  0.32801482  0.25039120    -0.23200
C880        C  0.88614845  0.32228401  0.28390880     0.19000
C881        C  0.89182343  0.33280328  0.31168992     0.16200
C882        C  0.89958818  0.34885831  0.30550313    -0.18200
C883        C  0.88992880  0.32709034  0.34518643    -0.20000
C884        C  0.88269310  0.31109551  0.35111988    -0.12600
C885        C  0.87713886  0.30044260  0.32370804     0.04100
C886        C  0.87881411  0.30623389  0.29006464    -0.24700
H887        H  0.89777094  0.34808134  0.21825876     0.09100
H888        H  0.88388926  0.32009831  0.22873854     0.12800
H889        H  0.90411394  0.35681344  0.32707352     0.12700
H890        H  0.89424428  0.33501509  0.36682423     0.12400
H891        H  0.88166696  0.30708510  0.37717643     0.13000
H892        H  0.87465470  0.29827364  0.26847236     0.14900
C893        C  0.90587395  0.47319123  0.40540706    -0.05100
C894        C  0.90366959  0.47432651  0.37026624    -0.05000
C895        C  0.90323166  0.46335991  0.34705609    -0.23200
C896        C  0.90562321  0.45139113  0.35843899     0.19000
C897        C  0.90693817  0.44957473  0.39385292     0.16200
C898        C  0.90663215  0.46025246  0.41719640    -0.18200
C899        C  0.90985171  0.43791364  0.40508426    -0.20000
C900        C  0.91255998  0.42890805  0.38144743    -0.12600
C901        C  0.91222712  0.43124572  0.34610510     0.04100
C902        C  0.90800098  0.44206590  0.33489100    -0.24700
H903        H  0.90325183  0.48425170  0.36053580     0.09100
H904        H  0.90214672  0.46489825  0.31999799     0.12800
H905        H  0.90872757  0.45945597  0.44411898     0.12700
H906        H  0.91089931  0.43633951  0.43213682     0.12400
H907        H  0.91581739  0.42075528  0.39090688     0.13000
H908        H  0.90764263  0.44403248  0.30776890     0.14900
C909        C  0.91723277  0.42853701  0.15545128    -0.05100
C910        C  0.92081361  0.42583002  0.12234920    -0.05000
C911        C  0.92145003  0.43519133  0.09506962    -0.23200
C912        C  0.91840204  0.44734209  0.10043863     0.19000
C913        C  0.91344621  0.44927483  0.13295269     0.16200
C914        C  0.91292920  0.43989126  0.16023075    -0.18200
C915        C  0.91005956  0.46121096  0.13814436    -0.20000
C916        C  0.91252146  0.47175472  0.11201404    -0.12600
C917        C  0.91861746  0.47065589  0.08055118     0.04100
C918        C  0.92108877  0.45813525  0.07452800    -0.24700
H919        H  0.92433876  0.41731282  0.11808909     0.09100
H920        H  0.92509522  0.43343408  0.07019518     0.12800
H921        H  0.91015609  0.44208894  0.18568250     0.12700
H922        H  0.90609498  0.46276033  0.16281872     0.12400
H923        H  0.91054403  0.48130224  0.11705969     0.13000
H924        H  0.92568723  0.45718016  0.05012315     0.14900
C925        C  0.88410725  0.57188492  0.07366098    -0.05100
C926        C  0.90044095  0.58036656  0.07722207    -0.05000
C927        C  0.90956751  0.57388161  0.06861032    -0.23200
C928        C  0.90269800  0.55865986  0.05611244     0.19000
C929        C  0.88631941  0.54965015  0.05359960     0.16200
C930        C  0.87707639  0.55628288  0.06245340    -0.18200
C931        C  0.87957914  0.53429668  0.04151435    -0.20000
C932        C  0.88892676  0.52814919  0.03120529    -0.12600
C933        C  0.90528225  0.53720437  0.03243849     0.04100
C934        C  0.91201467  0.55245177  0.04554894    -0.24700
H935        H  0.90634182  0.59230026  0.08606163     0.09100
H936        H  0.92208670  0.58093437  0.07110063     0.12800
H937        H  0.86455696  0.54949730  0.05960011     0.12700
H938        H  0.86706054  0.52707653  0.03961706     0.12400
H939        H  0.88331044  0.51632323  0.02172600     0.13000
H940        H  0.92455261  0.55957409  0.04737348     0.14900
C941        C  0.77278879  0.57853031  0.42334361    -0.05100
C942        C  0.76922357  0.58082905  0.45674157    -0.05000
C943        C  0.77774423  0.58022020  0.48462342    -0.23200
C944        C  0.79015751  0.57756596  0.47942602     0.19000
C945        C  0.79305727  0.57399183  0.44622411     0.16200
C946        C  0.78426627  0.57442336  0.41833749    -0.18200
C947        C  0.80555637  0.57139644  0.44120756    -0.20000
C948        C  0.81584219  0.57362212  0.46820229    -0.12600
C949        C  0.81372911  0.57843437  0.50050888     0.04100
C950        C  0.80114070  0.58222049  0.00713272    -0.24700
H951        H  0.76065639  0.58429284  0.46100688     0.09100
H952        H  0.77463029  0.58321500  0.00964139     0.12800
H953        H  0.78728024  0.57295818  0.39250375     0.12700
H954        H  0.80789072  0.56851690  0.41599322     0.12400
H955        H  0.82600097  0.57263560  0.46325743     0.13000
H956        H  0.79886852  0.58532950  0.03219289     0.14900
C957        C  0.81046967  0.56932310  0.16491603    -0.05100
C958        C  0.79910543  0.57005168  0.14484250    -0.05000
C959        C  0.78650956  0.57024491  0.16010468    -0.23200
C960        C  0.78480676  0.56933235  0.19574886     0.19000
C961        C  0.79525886  0.56698660  0.21587890     0.16200
C962        C  0.80813948  0.56719099  0.20041850    -0.18200
C963        C  0.79325355  0.56557186  0.25141772    -0.20000
C964        C  0.78175346  0.56756872  0.26707706    -0.12600
C965        C  0.77220896  0.57133221  0.24765664     0.04100
C966        C  0.77348781  0.57170546  0.21175432    -0.24700
H967        H  0.80074622  0.57199441  0.11754723     0.09100
H968        H  0.77855545  0.57189915  0.14415979     0.12800
H969        H  0.81688762  0.56677633  0.21619761     0.12700
H970        H  0.80102929  0.56361836  0.26728737     0.12400
H971        H  0.78116254  0.56737140  0.29475040     0.13000
H972        H  0.76624757  0.57463567  0.19646586     0.14900
C973        C  0.64528016  0.53612550  0.27137830    -0.05100
C974        C  0.65319280  0.52788436  0.26718608    -0.05000
C975        C  0.66888885  0.53454321  0.27705392    -0.23200
C976        C  0.67689382  0.54945593  0.29193221     0.19000
C977        C  0.66892368  0.55768661  0.29659213     0.16200
C978        C  0.65335438  0.55108415  0.28610435    -0.18200
C979        C  0.67660034  0.57242734  0.31179617    -0.20000
C980        C  0.69211628  0.57913229  0.32186603    -0.12600
C981        C  0.70047271  0.57134356  0.31693578     0.04100
C982        C  0.69267697  0.55634543  0.30208814    -0.24700
H983        H  0.64727392  0.51633429  0.25610768     0.09100
H984        H  0.67473270  0.52798612  0.27324298     0.12800
H985        H  0.64741917  0.55755506  0.29008648     0.12700
H986        H  0.67062702  0.57886043  0.31570321     0.12400
H987        H  0.69765550  0.59064609  0.33312144     0.13000
H988        H  0.69891848  0.55020607  0.29780603     0.14900
C989        C  0.52479104  0.43149774  0.09071825    -0.05100
C990        C  0.51832337  0.42970154  0.12344413    -0.05000
C991        C  0.52749394  0.43847621  0.15121894    -0.23200
C992        C  0.54332547  0.44926798  0.14682196     0.19000
C993        C  0.55029967  0.45034475  0.11481227     0.16200
C994        C  0.54101038  0.44137409  0.08699601    -0.18200
C995        C  0.56621795  0.46113937  0.11067905    -0.20000
C996        C  0.57480415  0.47158061  0.13716417    -0.12600
C997        C  0.56758246  0.47133136  0.16805653     0.04100
C998        C  0.55201424  0.45972851  0.17319170    -0.24700
H999        H  0.50596335  0.42216653  0.12724563     0.09100
H1000       H  0.52202355  0.43738597  0.17574429     0.12800
H1001       H  0.54625326  0.44283888  0.06204362     0.12700
H1002       H  0.57181140  0.46204893  0.08640609     0.12400
H1003       H  0.58674096  0.48049032  0.13268599     0.13000
H1004       H  0.54639516  0.45950521  0.19706218     0.14900
C1005       C  0.52579315  0.42265461  0.39774213    -0.05100
C1006       C  0.52123113  0.42159471  0.36328442    -0.15800
C1007       C  0.53167506  0.43169510  0.33877613    -0.23200
C1008       C  0.54674658  0.44334046  0.34845236     0.19000
C1009       C  0.55178680  0.44379277  0.38244628     0.16200
C1010       C  0.54147718  0.43318861  0.40646874    -0.18200
C1011       C  0.56657061  0.45574371  0.39274731    -0.20000
C1012       C  0.57573376  0.46787321  0.37048128    -0.12600
C1013       C  0.57060218  0.46795948  0.33709852     0.04100
C1014       C  0.55635991  0.45529130  0.32570288    -0.24700
H1015       H  0.50931789  0.41364871  0.35566017     0.09100
H1016       H  0.52761304  0.43108154  0.31277433     0.12800
H1017       H  0.54531541  0.43423760  0.43281496     0.12700
H1018       H  0.57060016  0.45628048  0.41875741     0.12400
H1019       H  0.58651002  0.47760786  0.37986922     0.13000
H1020       H  0.55215727  0.45547839  0.30020787     0.14900
C1021       C  0.43449230  0.30302941  0.06384133    -0.05100
C1022       C  0.43842050  0.31410052  0.09015307    -0.05000
C1023       C  0.44655859  0.33007218  0.08314912    -0.23200
C1024       C  0.45098270  0.33547301  0.04958118     0.19000
C1025       C  0.44750294  0.32460961  0.02291050     0.16200
C1026       C  0.43936769  0.30853144  0.03015613    -0.18200
C1027       C  0.45194290  0.33002829  0.98933730    -0.20000
C1028       C  0.45941732  0.34597204  0.98213730    -0.12600
C1029       C  0.46270919  0.35698103  0.00828718     0.04100
C1030       C  0.45855332  0.35151142  0.04218361    -0.24700
H1031       H  0.43492138  0.31041359  0.11621241     0.09100
H1032       H  0.44916531  0.33822095  0.10402643     0.12800
H1033       H  0.43652312  0.30030748  0.00932784     0.12700
H1034       H  0.44909419  0.32126622  0.46775228     0.12400
H1035       H  0.46269137  0.34919590  0.45658715     0.13000
H1036       H  0.46095979  0.35970618  0.06286421     0.14900
C1037       C  0.42502811  0.18523830  0.42069026    -0.05100
C1038       C  0.42914667  0.19945889  0.40483393    -0.05000
C1039       C  0.43039337  0.21198836  0.42360437    -0.23200
C1040       C  0.42767906  0.21065519  0.45881874     0.19000
C1041       C  0.42543303  0.19714230  0.47566672     0.16200
C1042       C  0.42421690  0.18450554  0.45653590    -0.18200
C1043       C  0.42307004  0.19597330  0.51100202    -0.20000
C1044       C  0.41781728  0.20498110  0.03120323    -0.12600
C1045       C  0.42174129  0.21981604  0.51157335     0.04100
C1046       C  0.42587973  0.22195956  0.47685537    -0.24700
H1047       H  0.43000886  0.20041674  0.37723030     0.09100
H1048       H  0.43242662  0.22230729  0.41018279     0.12800
H1049       H  0.42097263  0.17364814  0.46910969     0.12700
H1050       H  0.42163739  0.18591946  0.52463786     0.12400
H1051       H  0.41384365  0.20250799  0.05738972     0.13000
H1052       H  0.42638307  0.23163072  0.46325120     0.14900
C1053       C  0.41746906  0.18496537  0.24829084    -0.05100
C1054       C  0.41987622  0.18281543  0.21384324    -0.05000
C1055       C  0.42126020  0.19355625  0.18918213    -0.23200
C1056       C  0.42034782  0.20668451  0.19860039     0.19000
C1057       C  0.41911546  0.20962185  0.23343408     0.16200
C1058       C  0.41769554  0.19874217  0.25808144    -0.18200
C1059       C  0.41829066  0.22285551  0.24266765    -0.20000
C1060       C  0.41728635  0.23229812  0.21742734    -0.12600
C1061       C  0.41716568  0.22865057  0.18270046     0.04100
C1062       C  0.41950867  0.21628011  0.17358445    -0.24700
H1063       H  0.41970861  0.17234713  0.20564745     0.09100
H1064       H  0.42230853  0.19121574  0.16254198     0.12800
H1065       H  0.41596402  0.20060128  0.28464897     0.12700
H1066       H  0.41750231  0.22537664  0.26931661     0.12400
H1067       H  0.41535928  0.24164301  0.22502974     0.13000
H1068       H  0.41944625  0.21339108  0.14678243     0.14900
C1069       C  0.52242967  0.07776398  0.16712790    -0.05100
C1070       C  0.52019611  0.08233032  0.13477588    -0.05000
C1071       C  0.53061105  0.08474893  0.10819850    -0.23200
C1072       C  0.54339421  0.08263497  0.11371272     0.19000
C1073       C  0.54617317  0.07893287  0.14681155     0.16200
C1074       C  0.53565551  0.07647859  0.17321480    -0.18200
C1075       C  0.55895648  0.07691953  0.15254722    -0.20000
C1076       C  0.56833894  0.07755266  0.12532964    -0.12600
C1077       C  0.56510076  0.08014256  0.09179290     0.04100
C1078       C  0.55290037  0.08326046  0.08642022    -0.24700
H1079       H  0.50998885  0.08322465  0.12960722     0.09100
H1080       H  0.52832853  0.08766364  0.08303546     0.12800
H1081       H  0.53735065  0.07286813  0.19818347     0.12700
H1082       H  0.56130538  0.07418939  0.17784321     0.12400
H1083       H  0.57754954  0.07504233  0.13028083     0.13000
H1084       H  0.55025037  0.08531025  0.06074808     0.14900
C1085       C  0.52884931  0.08956261  0.34263072    -0.05100
C1086       C  0.52845038  0.09389071  0.37662337    -0.05000
C1087       C  0.54088295  0.09767860  0.39888712    -0.23200
C1088       C  0.55364707  0.09647517  0.38798698     0.19000
C1089       C  0.55456040  0.09273743  0.35352457     0.16200
C1090       C  0.54229614  0.08971301  0.33069879    -0.18200
C1091       C  0.56700110  0.09071854  0.34346140    -0.20000
C1092       C  0.57729709  0.09059626  0.36803734    -0.12600
C1093       C  0.57558157  0.09296933  0.40285613     0.04100
C1094       C  0.56456627  0.09729539  0.41192311    -0.24700
H1095       H  0.51816690  0.09365807  0.38638206     0.09100
H1096       H  0.53998212  0.10043858  0.42530404     0.12800
H1097       H  0.54251574  0.08598509  0.30472624     0.12700
H1098       H  0.56798982  0.08795096  0.31711026     0.12400
H1099       H  0.58564537  0.08728308  0.36018016     0.13000
H1100       H  0.56318636  0.09939247  0.43856243     0.14900
C1101       C  0.43537375  0.12053428  0.32650425    -0.05100
C1102       C  0.43447145  0.10978962  0.35083441    -0.05000
C1103       C  0.44096891  0.10041432  0.34431873    -0.23200
C1104       C  0.44872194  0.10170087  0.31348516     0.19000
C1105       C  0.45056194  0.11308158  0.28965730     0.16200
C1106       C  0.44380933  0.12233603  0.29618192    -0.18200
C1107       C  0.45879207  0.11471992  0.25931770    -0.20000
C1108       C  0.46482347  0.10496689  0.25232466    -0.12600
C1109       C  0.46241826  0.09314619  0.27506738     0.04100
C1110       C  0.45443862  0.09165125  0.30580660    -0.24700
H1111       H  0.42805887  0.10807067  0.37428340     0.09100
H1112       H  0.43960392  0.09188928  0.36309815     0.12800
H1113       H  0.44474939  0.13062829  0.27720227     0.12700
H1114       H  0.46045267  0.12346125  0.24084694     0.12400
H1115       H  0.47102214  0.10638072  0.22867413     0.13000
H1116       H  0.45274351  0.08270026  0.32374698     0.14900
C1117       C  0.82497077  0.13312727  0.36600379    -0.05100
C1118       C  0.83918708  0.14420030  0.38071501    -0.05000
C1119       C  0.84216154  0.15912124  0.38759402    -0.23200
C1120       C  0.83111672  0.16328439  0.37898809     0.19000
C1121       C  0.81645915  0.15208969  0.36569381     0.16200
C1122       C  0.81333046  0.13689917  0.35998798    -0.18200
C1123       C  0.80570323  0.15660909  0.35613629    -0.20000
C1124       C  0.81008156  0.17234009  0.35654009    -0.12600
C1125       C  0.82510243  0.18353602  0.36728908     0.04100
C1126       C  0.83507846  0.17877107  0.38075926    -0.24700
H1127       H  0.84816080  0.14141220  0.38623858     0.09100
H1128       H  0.85340589  0.16761133  0.39800840     0.12800
H1129       H  0.80228982  0.12835441  0.34880571     0.12700
H1130       H  0.79435627  0.14815618  0.34615748     0.12400
H1131       H  0.80221342  0.17581129  0.34615191     0.13000
H1132       H  0.84661361  0.18736427  0.38965580     0.14900
C1133       C  0.74852772  0.09530893  0.48941271    -0.05100
C1134       C  0.74381803  0.09354993  0.45506693    -0.05000
C1135       C  0.74798035  0.08549774  0.43217542    -0.23200
C1136       C  0.75751918  0.07972820  0.44310149     0.19000
C1137       C  0.76143132  0.08053434  0.47812609     0.16200
C1138       C  0.75644573  0.08790640  0.50135147    -0.18200
C1139       C  0.77157072  0.07541401  0.48865999    -0.20000
C1140       C  0.77896892  0.07101925  0.46437991    -0.12600
C1141       C  0.77600283  0.07125425  0.42927221     0.04100
C1142       C  0.76446877  0.07466896  0.41910104    -0.24700
H1143       H  0.73779832  0.09928661  0.44552324     0.09100
H1144       H  0.74483998  0.08493093  0.40543124     0.12800
H1145       H  0.75543570  0.08823519  0.02956963     0.12700
H1146       H  0.77464912  0.07588355  0.51541741     0.12400
H1147       H  0.78770540  0.06836074  0.47297806     0.13000
H1148       H  0.76199418  0.07489891  0.39216308     0.14900
C1149       C  0.78543008  0.07917805  0.23291248    -0.05100
C1150       C  0.79286485  0.08207259  0.20106418    -0.05000
C1151       C  0.78883596  0.08882443  0.17443252    -0.23200
C1152       C  0.77717997  0.09268898  0.17900433     0.19000
C1153       C  0.76878661  0.08868778  0.20990888     0.16200
C1154       C  0.77298009  0.08202802  0.23659779    -0.18200
C1155       C  0.75680740  0.09208580  0.21421295    -0.20000
C1156       C  0.75358194  0.09993764  0.18877158    -0.12600
C1157       C  0.76247944  0.10487932  0.15885569     0.04100
C1158       C  0.77412970  0.10096068  0.15385053    -0.24700
H1159       H  0.80254581  0.08014756  0.19752664     0.09100
H1160       H  0.79527349  0.09159975  0.15075547     0.12800
H1161       H  0.76708202  0.07981977  0.26093353     0.12700
H1162       H  0.75014640  0.08897240  0.23760745     0.12400
H1163       H  0.74452634  0.10272674  0.19309788     0.13000
H1164       H  0.78091177  0.10451183  0.13060827     0.14900
C1165       C  0.79898312  0.02231505  0.35072676    -0.05100
C1166       C  0.79286988  0.01148484  0.32370334    -0.05000
C1167       C  0.78493305  0.99549767  0.33031084    -0.23200
C1168       C  0.78284578  0.99001968  0.36408806     0.19000
C1169       C  0.78938468  0.00073897  0.39134862     0.16200
C1170       C  0.79750988  0.01672106  0.38450029    -0.18200
C1171       C  0.78723229  0.99532452  0.42514393    -0.20000
C1172       C  0.77821769  0.97943991  0.43201584    -0.12600
C1173       C  0.77126997  0.96860750  0.40522776     0.04100
C1174       C  0.77395144  0.97405950  0.37115295    -0.24700
H1175       H  0.79379813  0.01535528  0.29755094     0.09100
H1176       H  0.78004391  0.98741616  0.30903179     0.12800
H1177       H  0.80220453  0.02481591  0.40580779     0.12700
H1178       H  0.79222854  0.00342097  0.44637230     0.12400
H1179       H  0.77646240  0.97567039  0.45836259     0.13000
H1180       H  0.76875929  0.96593575  0.35002387     0.14900
C1181       C  0.74342400  0.85392715  0.10747654    -0.05100
C1182       C  0.73366514  0.86028828  0.11056943    -0.05000
C1183       C  0.73607742  0.87297540  0.09110631    -0.23200
C1184       C  0.74814543  0.87951455  0.06737570     0.19000
C1185       C  0.75827751  0.87351241  0.06408755     0.16200
C1186       C  0.75606213  0.86092576  0.08470279    -0.18200
C1187       C  0.76983392  0.87966289  0.03887213    -0.20000
C1188       C  0.77050809  0.89069460  0.01569813    -0.12600
C1189       C  0.76014599  0.89634990  0.01826979     0.04100
C1190       C  0.74947974  0.89119973  0.04525535    -0.24700
H1191       H  0.72398056  0.85535883  0.12811307     0.09100
H1192       H  0.72814867  0.87735576  0.09386327     0.12800
H1193       H  0.76365842  0.85615842  0.08187212     0.12700
H1194       H  0.77769075  0.87522734  0.03565640     0.12400
H1195       H  0.77740791  0.89746023  0.50336183     0.13000
H1196       H  0.74104685  0.89502086  0.04666928     0.14900
C1197       C  0.76129618  0.89597852  0.32860904    -0.05100
C1198       C  0.75917256  0.89775702  0.29371961    -0.05000
C1199       C  0.76053817  0.88827162  0.26901683    -0.23200
C1200       C  0.76363596  0.87656922  0.27889930     0.19000
C1201       C  0.76691181  0.87545810  0.31358585     0.16200
C1202       C  0.76623413  0.88548945  0.33795585    -0.18200
C1203       C  0.76922748  0.86331729  0.32393529    -0.20000
C1204       C  0.76671590  0.85148933  0.30086575    -0.12600
C1205       C  0.76266205  0.85202574  0.26670755     0.04100
C1206       C  0.76201765  0.86507469  0.25541561    -0.24700
H1207       H  0.75546005  0.90575855  0.28569012     0.09100
H1208       H  0.75806050  0.88934626  0.24251495     0.12800
H1209       H  0.76802050  0.88398257  0.36468388     0.12700
H1210       H  0.77172589  0.86228799  0.35045505     0.12400
H1211       H  0.76701894  0.84144155  0.31016017     0.13000
H1212       H  0.75846371  0.86534404  0.22931738     0.14900
C1213       C  0.76807745  0.79030709  0.15153026    -0.05100
C1214       C  0.78221306  0.79624592  0.16947716    -0.05000
C1215       C  0.79244225  0.79071601  0.16281088    -0.23200
C1216       C  0.78900679  0.77942258  0.13727948     0.19000
C1217       C  0.77526677  0.77397123  0.11767503     0.16200
C1218       C  0.76474575  0.77919325  0.12536708    -0.18200
C1219       C  0.77219840  0.76319001  0.09113862    -0.20000
C1220       C  0.78226462  0.75740043  0.08500747    -0.12600
C1221       C  0.79546886  0.76196332  0.10570363     0.04100
C1222       C  0.79885180  0.77321339  0.13158619    -0.24700
H1223       H  0.78509896  0.80480198  0.18957816     0.09100
H1224       H  0.80299892  0.79518375  0.17789828     0.12800
H1225       H  0.75398426  0.77464892  0.11098359     0.12700
H1226       H  0.76181637  0.75897054  0.07553729     0.12400
H1227       H  0.77923576  0.74866504  0.06526002     0.13000
H1228       H  0.80897396  0.77687206  0.14780747     0.14900
C1229       C  0.83527512  0.68711240  0.14309167    -0.05100
C1230       C  0.85083159  0.69158875  0.15028522    -0.05000
C1231       C  0.85504759  0.68043165  0.15650862    -0.23200
C1232       C  0.84380708  0.66463747  0.15498936     0.19000
C1233       C  0.82797845  0.66008282  0.15031225     0.16200
C1234       C  0.82379522  0.67136583  0.14507589    -0.18200
C1235       C  0.81675713  0.64429277  0.14783310    -0.20000
C1236       C  0.82136396  0.63322642  0.14625721    -0.12600
C1237       C  0.83713856  0.63781016  0.14837838     0.04100
C1238       C  0.84825343  0.65337231  0.15474678    -0.24700
H1239       H  0.85985641  0.70367858  0.14964219     0.09100
H1240       H  0.86720322  0.68412240  0.16044873     0.12800
H1241       H  0.81173000  0.66776454  0.13999231     0.12700
H1242       H  0.80457533  0.64060886  0.14443528     0.12400
H1243       H  0.81274564  0.62122815  0.14098875     0.13000
H1244       H  0.86047303  0.65686302  0.15578915     0.14900
C1245       C  0.79005643  0.69153870  0.00254271    -0.05100
C1246       C  0.79846720  0.69861436  0.45831736    -0.05000
C1247       C  0.79503229  0.68744938  0.43266002    -0.23200
C1248       C  0.78297366  0.67206980  0.43702828     0.19000
C1249       C  0.77370278  0.66815245  0.46666533     0.16200
C1250       C  0.77735628  0.67937353  0.49248747    -0.18200
C1251       C  0.76131017  0.65291320  0.47056706    -0.20000
C1252       C  0.75836159  0.64156305  0.44574503    -0.12600
C1253       C  0.76798338  0.64512824  0.41708315     0.04100
C1254       C  0.78023446  0.66046522  0.41271611    -0.24700
H1255       H  0.80841607  0.71013883  0.45520625     0.09100
H1256       H  0.80215290  0.69071489  0.40994528     0.12800
H1257       H  0.78737914  0.67195016  0.03173763     0.12700
H1258       H  0.75400615  0.64973320  0.49297899     0.12400
H1259       H  0.74880983  0.62985675  0.44940290     0.13000
H1260       H  0.78754304  0.66334858  0.39033706     0.14900
C1261       C  0.77733119  0.69231908  0.18852106    -0.05100
C1262       C  0.77906910  0.69517765  0.22392577    -0.05000
C1263       C  0.77172853  0.68291796  0.24699312    -0.23200
C1264       C  0.76284812  0.66758129  0.23495227     0.19000
C1265       C  0.75998390  0.66473473  0.19950718     0.16200
C1266       C  0.76683113  0.67715981  0.17664425    -0.18200
C1267       C  0.75162722  0.64940549  0.18722535    -0.20000
C1268       C  0.74758315  0.63704241  0.20944077    -0.12600
C1269       C  0.75128432  0.63979366  0.24440351     0.04100
C1270       C  0.75805346  0.65503791  0.25734932    -0.24700
H1271       H  0.78697568  0.70670453  0.23379664     0.09100
H1272       H  0.77394794  0.68531638  0.27411006     0.12800
H1273       H  0.76522367  0.67472899  0.14942016     0.12700
H1274       H  0.74924958  0.64702225  0.16013981     0.12400
H1275       H  0.74227667  0.62537696  0.19903486     0.13000
H1276       H  0.76107693  0.65726490  0.28425527     0.14900
C1277       C  0.23842464  0.02714528  0.10551927    -0.05100
C1278       C  0.22823618  0.01669936  0.08078031    -0.05000
C1279       C  0.21949132  0.00075151  0.08755157    -0.23200
C1280       C  0.22067266  0.99489295  0.11937040     0.19000
C1281       C  0.23041047  0.00531907  0.14500788     0.16200
C1282       C  0.23933806  0.02137027  0.13783154    -0.18200
C1283       C  0.23135904  0.99941739  0.17697799    -0.20000
C1284       C  0.22323926  0.98335460  0.18306454    -0.12600
C1285       C  0.21405786  0.97275997  0.15727310     0.04100
C1286       C  0.21264239  0.97876788  0.12558382    -0.24700
H1287       H  0.22747656  0.02082692  0.05568839     0.09100
H1288       H  0.21204885  0.99294929  0.06758340     0.12800
H1289       H  0.24725803  0.02932278  0.15703196     0.12700
H1290       H  0.23866296  0.00721591  0.19709951     0.12400
H1291       H  0.22461462  0.97920028  0.20761254     0.13000
H1292       H  0.20555235  0.97087110  0.10535533     0.14900
C1293       C  0.36349041  0.09904981  0.42794532    -0.05100
C1294       C  0.36656374  0.10123224  0.46330682    -0.05000
C1295       C  0.35436339  0.09417481  0.48706619    -0.23200
C1296       C  0.33880084  0.08521770  0.47587008     0.19000
C1297       C  0.33570670  0.08239916  0.44052430     0.16200
C1298       C  0.34801417  0.08886466  0.41710585    -0.18200
C1299       C  0.32025399  0.07419926  0.42875695    -0.20000
C1300       C  0.30794327  0.06978556  0.45149628    -0.12600
C1301       C  0.31057760  0.07255918  0.98800738     0.04100
C1302       C  0.32621570  0.08090729  0.99928232    -0.24700
H1303       H  0.37827174  0.10894284  0.47255912     0.09100
H1304       H  0.35701464  0.09646849  0.51407319     0.12800
H1305       H  0.34526116  0.08696381  0.39005802     0.12700
H1306       H  0.31770699  0.07205008  0.40167780     0.12400
H1307       H  0.29620375  0.06455432  0.44143366     0.13000
H1308       H  0.32876207  0.08453095  0.02582431     0.14900
C1309       C  0.31770268  0.08804989  0.16133075    -0.05100
C1310       C  0.31383393  0.07820279  0.18951606    -0.05000
C1311       C  0.32532367  0.08017765  0.21300060    -0.23200
C1312       C  0.34084046  0.09184668  0.20813037     0.19000
C1313       C  0.34493187  0.10112732  0.17855580     0.16200
C1314       C  0.33329406  0.09926849  0.15551967    -0.18200
C1315       C  0.36048210  0.11256863  0.17335411    -0.20000
C1316       C  0.37160305  0.11588664  0.19888370    -0.12600
C1317       C  0.36728913  0.10782340  0.22993778     0.04100
C1318       C  0.35211437  0.09510323  0.23339256    -0.24700
H1319       H  0.30187251  0.06933049  0.19387399     0.09100
H1320       H  0.32201961  0.07286739  0.23539272     0.12800
H1321       H  0.33630547  0.10662983  0.13321888     0.12700
H1322       H  0.36385100  0.11958158  0.15048736     0.12400
H1323       H  0.38320487  0.12568713  0.19553512     0.13000
H1324       H  0.34869837  0.08864935  0.25707724     0.14900
C1325       C  0.35054290  0.19302915  0.04611087    -0.05100
C1326       C  0.33548141  0.18992387  0.03827637    -0.05000
C1327       C  0.32408895  0.17504030  0.02789292    -0.23200
C1328       C  0.32768322  0.16317063  0.02538205     0.19000
C1329       C  0.34316779  0.16661615  0.03044702     0.16200
C1330       C  0.35450707  0.18156022  0.04034921    -0.18200
C1331       C  0.34678864  0.15476697  0.02857580    -0.20000
C1332       C  0.33488259  0.13937786  0.02582103    -0.12600
C1333       C  0.31939820  0.13583068  0.02377233     0.04100
C1334       C  0.31587808  0.14771607  0.02131644    -0.24700
H1335       H  0.33233937  0.19876548  0.04176741     0.09100
H1336       H  0.31231055  0.17261622  0.02368555     0.12800
H1337       H  0.36626355  0.18403465  0.04535257     0.12700
H1338       H  0.35863123  0.15727434  0.03216930     0.12400
H1339       H  0.33762363  0.13021004  0.02827735     0.13000
H1340       H  0.30382558  0.14484024  0.02042657     0.14900
C1341       C  0.15621374  0.89730545  0.27251137    -0.05100
C1342       C  0.16293578  0.89917786  0.30513571    -0.05000
C1343       C  0.15439375  0.88919571  0.33193121    -0.23200
C1344       C  0.13896474  0.87718812  0.32655467     0.19000
C1345       C  0.13170501  0.87611581  0.29477126     0.16200
C1346       C  0.14032997  0.88617043  0.26811247    -0.18200
C1347       C  0.11618927  0.86440094  0.28944812    -0.20000
C1348       C  0.10817202  0.85332515  0.31467388    -0.12600
C1349       C  0.11558504  0.85355854  0.34540335     0.04100
C1350       C  0.13090550  0.86578809  0.35161245    -0.24700
H1351       H  0.17513110  0.90754202  0.30922346     0.09100
H1352       H  0.16010158  0.89036590  0.35628830     0.12800
H1353       H  0.13495053  0.88462851  0.24315848     0.12700
H1354       H  0.11040462  0.86350767  0.26533634     0.12400
H1355       H  0.09639026  0.84410200  0.30948382     0.13000
H1356       H  0.13663372  0.86619146  0.37551978     0.14900
C1357       C  0.09973084  0.85682364  0.01779831    -0.05100
C1358       C  0.09544635  0.85679100  0.05194045    -0.05000
C1359       C  0.10554298  0.86840134  0.07474494    -0.23200
C1360       C  0.12037052  0.87984857  0.06403610     0.19000
C1361       C  0.12432802  0.88069302  0.02913357     0.16200
C1362       C  0.11376714  0.86938391  0.00598776    -0.18200
C1363       C  0.13934968  0.89183330  0.01871607    -0.20000
C1364       C  0.15075537  0.90098286  0.04302932    -0.12600
C1365       C  0.14729563  0.89928340  0.07813489     0.04100
C1366       C  0.13177668  0.88935635  0.08816526    -0.24700
H1367       H  0.08482181  0.84709907  0.06159455     0.09100
H1368       H  0.10228851  0.86762795  0.10137932     0.12800
H1369       H  0.11732094  0.86925028  0.97986136     0.12700
H1370       H  0.14258586  0.89271012  0.99205210     0.12400
H1371       H  0.16255505  0.90851440  0.03449482     0.13000
H1372       H  0.12887579  0.88795771  0.11509795     0.14900
C1373       C  0.86365473  0.75029512  0.01472987    -0.05100
C1374       C  0.87848868  0.75388378  0.02673138    -0.05000
C1375       C  0.88963826  0.75429919  0.00448861    -0.23200
C1376       C  0.88454810  0.75158422  0.45648963     0.19000
C1377       C  0.86889167  0.74507339  0.44552972     0.16200
C1378       C  0.85779112  0.74527664  0.46733789    -0.18200
C1379       C  0.86430199  0.73740785  0.41397165    -0.20000
C1380       C  0.87479592  0.73538786  0.39435113    -0.12600
C1381       C  0.89020522  0.74104734  0.40559248     0.04100
C1382       C  0.89521720  0.74971884  0.43619244    -0.24700
H1383       H  0.88114480  0.75544999  0.05386080     0.09100
H1384       H  0.90063256  0.75636633  0.01485100     0.12800
H1385       H  0.84563347  0.73928031  0.45979516     0.12700
H1386       H  0.85240146  0.73239900  0.40505248     0.12400
H1387       H  0.87063841  0.72892369  0.37057584     0.13000
H1388       H  0.90703258  0.75414720  0.44516484     0.14900
C1389       C  0.90636645  0.75526847  0.25292906    -0.05100
C1390       C  0.91166435  0.76066151  0.21985591    -0.05000
C1391       C  0.90307588  0.76483724  0.19834739    -0.23200
C1392       C  0.88891750  0.76325733  0.20947996     0.19000
C1393       C  0.88444787  0.75947408  0.24383291     0.16200
C1394       C  0.89348012  0.75601556  0.26558189    -0.18200
C1395       C  0.87011388  0.75742500  0.25484222    -0.20000
C1396       C  0.85934185  0.75690837  0.23100730    -0.12600
C1397       C  0.86294077  0.75878103  0.19606941     0.04100
C1398       C  0.87832504  0.76349386  0.18603664    -0.24700
H1399       H  0.92161852  0.76038200  0.20966463     0.09100
H1400       H  0.90676630  0.76793653  0.17213899     0.12800
H1401       H  0.88945796  0.75222234  0.29137806     0.12700
H1402       H  0.86663157  0.75470754  0.28127509     0.12400
H1403       H  0.84769298  0.75340140  0.23949269     0.13000
H1404       H  0.88136514  0.76524628  0.15919399     0.14900
C1405       C  0.03265738  0.78938677  0.39732370    -0.05100
C1406       C  0.02435213  0.79595182  0.41164723    -0.05000
C1407       C  0.00867810  0.79014816  0.40310812    -0.23200
C1408       C  0.00112838  0.77795191  0.37930089     0.19000
C1409       C  0.00965502  0.77187727  0.36327388     0.16200
C1410       C  0.02524853  0.77742142  0.37283038    -0.18200
C1411       C  0.00237271  0.76022623  0.33825480    -0.20000
C1412       C  0.98666928  0.75425667  0.33005865    -0.12600
C1413       C  0.97779052  0.75952727  0.34722285     0.04100
C1414       C  0.98517449  0.77154845  0.37164390    -0.24700
H1415       H  0.02987666  0.80528804  0.43024787     0.09100
H1416       H  0.00243225  0.79513170  0.41531024     0.12800
H1417       H  0.03167156  0.77252371  0.36104046     0.12700
H1418       H  0.00875746  0.75555449  0.32537621     0.12400
H1419       H  0.98126009  0.74497489  0.31129403     0.13000
H1420       H  0.97848387  0.77579734  0.38483234     0.14900
C1421       C  0.91604084  0.69422256  0.43873887    -0.05100
C1422       C  0.90868323  0.69739272  0.46563549    -0.05000
C1423       C  0.90041536  0.68619006  0.49042683    -0.23200
C1424       C  0.89943859  0.67168220  0.48874110     0.19000
C1425       C  0.90766840  0.66880576  0.46310453     0.16200
C1426       C  0.91592884  0.68008689  0.43841528    -0.18200
C1427       C  0.90700086  0.65444625  0.46172143    -0.20000
C1428       C  0.89797491  0.64287960  0.48507364    -0.12600
C1429       C  0.89022276  0.64612484  0.01086743     0.04100
C1430       C  0.89009624  0.65985894  0.51162345    -0.24700
H1431       H  0.90845448  0.70812281  0.46626253     0.09100
H1432       H  0.89430924  0.68865414  0.51011525     0.12800
H1433       H  0.92158430  0.67751923  0.41783821     0.12700
H1434       H  0.91331114  0.65209825  0.44232712     0.12400
H1435       H  0.89751051  0.63181773  0.48346982     0.13000
H1436       H  0.88806277  0.66407328  0.03688445     0.14900
C1437       C  0.92838565  0.69171650  0.24156448    -0.05100
C1438       C  0.92863544  0.69437542  0.20625154    -0.05000
C1439       C  0.92258347  0.68193647  0.18287186    -0.23200
C1440       C  0.91569227  0.66657869  0.19449591     0.19000
C1441       C  0.91578517  0.66381112  0.22983309     0.16200
C1442       C  0.92247851  0.67636716  0.25292909    -0.18200
C1443       C  0.90821982  0.64850205  0.24180690    -0.20000
C1444       C  0.89980383  0.63606576  0.21923867    -0.12600
C1445       C  0.89928798  0.63866299  0.18415045     0.04100
C1446       C  0.90778791  0.65395088  0.17174576    -0.24700
H1447       H  0.93300203  0.70601789  0.19680016     0.09100
H1448       H  0.92257157  0.68428133  0.15586892     0.12800
H1449       H  0.92192735  0.67403255  0.28007433     0.12700
H1450       H  0.90812679  0.64619200  0.26886023     0.12400
H1451       H  0.89327559  0.62443313  0.22935492     0.13000
H1452       H  0.90718780  0.65611286  0.14481113     0.14900
C1453       C  0.87168458  0.67224731  0.29663852    -0.05100
C1454       C  0.86858737  0.65827677  0.31186728    -0.05000
C1455       C  0.85368052  0.64533840  0.31017435    -0.23200
C1456       C  0.84179840  0.64628566  0.29315370     0.19000
C1457       C  0.84531970  0.65972570  0.27436684     0.16200
C1458       C  0.86029812  0.67262684  0.27613847    -0.18200
C1459       C  0.83349024  0.66053068  0.25668705    -0.20000
C1460       C  0.81806097  0.64889019  0.26080495    -0.12600
C1461       C  0.81440993  0.63646379  0.28274341     0.04100
C1462       C  0.82630315  0.63467884  0.29714737    -0.24700
H1463       H  0.87732012  0.65771484  0.32736150     0.09100
H1464       H  0.85121803  0.63498956  0.32408070     0.12800
H1465       H  0.86276553  0.68331037  0.26369431     0.12700
H1466       H  0.83605435  0.67060614  0.24155955     0.12400
H1467       H  0.80894463  0.65024644  0.24913336     0.13000
H1468       H  0.82342567  0.62485198  0.31348622     0.14900
C1469       C  0.24436540  0.09644266  0.99360555    -0.05100
C1470       C  0.24124587  0.10671134  0.01209013    -0.05000
C1471       C  0.24039907  0.11870584  0.99551764    -0.23200
C1472       C  0.24361540  0.12112985  0.47209860     0.19000
C1473       C  0.24101990  0.10774918  0.45374258     0.16200
C1474       C  0.24168967  0.09567217  0.47067348    -0.18200
C1475       C  0.23873818  0.10706306  0.41837927    -0.20000
C1476       C  0.24007449  0.11983233  0.40102138    -0.12600
C1477       C  0.24409507  0.13383506  0.41833018     0.04100
C1478       C  0.24539599  0.13423546  0.45426370    -0.24700
H1479       H  0.24091006  0.10639005  0.03978468     0.09100
H1480       H  0.23899332  0.12701573  0.01072264     0.12800
H1481       H  0.24097282  0.08606615  0.45606344     0.12700
H1482       H  0.23648661  0.09684280  0.40388876     0.12400
H1483       H  0.23888422  0.11896749  0.37342810     0.13000
H1484       H  0.24835857  0.14481959  0.46809331     0.14900
C1485       C  0.26103428  0.11607915  0.14490781    -0.05100
C1486       C  0.27110843  0.13207857  0.13989177    -0.05000
C1487       C  0.26886561  0.14311123  0.15682969    -0.23200
C1488       C  0.25664806  0.13848091  0.17987801     0.19000
C1489       C  0.24587320  0.12247600  0.18399845     0.16200
C1490       C  0.24792837  0.11131468  0.16586617    -0.18200
C1491       C  0.23399466  0.11798413  0.20815235    -0.20000
C1492       C  0.23395063  0.12902503  0.23047699    -0.12600
C1493       C  0.24538190  0.14482844  0.22817267     0.04100
C1494       C  0.25598121  0.14955891  0.20113574    -0.24700
H1495       H  0.28102334  0.13615295  0.12311945     0.09100
H1496       H  0.27717502  0.15530154  0.15312946     0.12800
H1497       H  0.23996141  0.09905452  0.16969928     0.12700
H1498       H  0.22553818  0.10583070  0.21172062     0.12400
H1499       H  0.22580628  0.12505728  0.25147808     0.13000
H1500       H  0.26507992  0.16162705  0.19966338     0.14900
C1501       C  0.30102530  0.14942130  0.34319708    -0.05100
C1502       C  0.29759487  0.13594230  0.32479755    -0.05000
C1503       C  0.30820253  0.13062753  0.32469278    -0.23200
C1504       C  0.32226647  0.13878093  0.34299770     0.19000
C1505       C  0.32517234  0.15181032  0.36312256     0.16200
C1506       C  0.31449633  0.15689965  0.36331473    -0.18200
C1507       C  0.33913695  0.16018264  0.38122351    -0.20000
C1508       C  0.35064791  0.15635555  0.37769723    -0.12600
C1509       C  0.34828594  0.14396679  0.35645986     0.04100
C1510       C  0.33384798  0.13476273  0.34017057    -0.24700
H1511       H  0.28719440  0.13007276  0.30910971     0.09100
H1512       H  0.30572543  0.12058545  0.30923274     0.12800
H1513       H  0.31704996  0.16722911  0.37783412     0.12700
H1514       H  0.34142654  0.17011040  0.39691965     0.12400
H1515       H  0.36165246  0.16342261  0.39078432     0.13000
H1516       H  0.33203917  0.12522042  0.32366130     0.14900
C1517       C  0.31247950  0.21873912  0.41930743    -0.05100
C1518       C  0.30951053  0.22229220  0.45220095    -0.05000
C1519       C  0.32184110  0.23187996  0.47420083    -0.23200
C1520       C  0.33731018  0.23779736  0.46384646     0.19000
C1521       C  0.34042124  0.23509423  0.43015164     0.16200
C1522       C  0.32801867  0.22590220  0.40794002    -0.18200
C1523       C  0.35584646  0.24060778  0.42003590    -0.20000
C1524       C  0.36742995  0.24951678  0.95098318    -0.12600
C1525       C  0.36410007  0.24867703  0.98596878     0.04100
C1526       C  0.34961095  0.24523988  0.48738439    -0.24700
H1527       H  0.29771060  0.21713578  0.46144106     0.09100
H1528       H  0.31927409  0.23395028  0.49994975     0.12800
H1529       H  0.33056910  0.22351625  0.38243652     0.12700
H1530       H  0.35842026  0.23873294  0.39412993     0.12400
H1531       H  0.37933138  0.25464421  0.94241222     0.13000
H1532       H  0.34699953  0.24652807  0.51368339     0.14900
C1533       C  0.31030453  0.21766842  0.24580685    -0.05100
C1534       C  0.30605589  0.21943845  0.21262091    -0.05000
C1535       C  0.31745980  0.22744107  0.18780225    -0.23200
C1536       C  0.33333963  0.23390646  0.19577502     0.19000
C1537       C  0.33781776  0.23304824  0.22955965     0.16200
C1538       C  0.32629954  0.22496478  0.25431533    -0.18200
C1539       C  0.35370922  0.23961434  0.23754516    -0.20000
C1540       C  0.36498826  0.24603002  0.21181255    -0.12600
C1541       C  0.36060292  0.24601706  0.17761147     0.04100
C1542       C  0.34473100  0.24045492  0.17015417    -0.24700
H1543       H  0.29390684  0.21393744  0.20535341     0.09100
H1544       H  0.31382978  0.22807498  0.16201824     0.12800
H1545       H  0.32978473  0.22382413  0.27991758     0.12700
H1546       H  0.35736356  0.23917065  0.26342438     0.12400
H1547       H  0.37702178  0.25011053  0.21836142     0.13000
H1548       H  0.34110570  0.24040974  0.14397480     0.14900
C1549       C  0.20833266  0.22897337  0.40621711    -0.05100
C1550       C  0.21492479  0.22514352  0.43365372    -0.05000
C1551       C  0.22305084  0.21721508  0.42803493    -0.23200
C1552       C  0.22485581  0.21292138  0.39478904     0.19000
C1553       C  0.21800117  0.21631110  0.36702569     0.16200
C1554       C  0.20974530  0.22420258  0.37287695    -0.18200
C1555       C  0.21986944  0.21209654  0.33375781    -0.20000
C1556       C  0.22877773  0.20500498  0.32790930    -0.12600
C1557       C  0.23594310  0.20177292  0.35517107     0.04100
C1558       C  0.23366734  0.20561197  0.38876653    -0.24700
H1559       H  0.21412604  0.22860331  0.45951892     0.09100
H1560       H  0.22819295  0.21470044  0.44972387     0.12800
H1561       H  0.20477496  0.22697745  0.35126269     0.12700
H1562       H  0.21465327  0.21453632  0.31209496     0.12400
H1563       H  0.23016895  0.20216886  0.30187534     0.13000
H1564       H  0.23907900  0.20328614  0.41023098     0.14900
C1565       C  0.14449449  0.23696967  0.01654008    -0.05100
C1566       C  0.12844243  0.22897339  0.49586459    -0.05000
C1567       C  0.11656476  0.22874242  0.51541346    -0.23200
C1568       C  0.11981448  0.23611679  0.05438932     0.19000
C1569       C  0.13447745  0.24121183  0.07006478     0.16200
C1570       C  0.14675892  0.24160138  0.05111507    -0.18200
C1571       C  0.13698567  0.24705310  0.10347344    -0.20000
C1572       C  0.12577960  0.24923749  0.11982022    -0.12600
C1573       C  0.11184258  0.24603237  0.10302402     0.04100
C1574       C  0.10858108  0.23863073  0.07080959    -0.24700
H1575       H  0.12612528  0.22565686  0.46911799     0.09100
H1576       H  0.10533285  0.22486244  0.50357970     0.12800
H1577       H  0.15837668  0.24712170  0.06198901     0.12700
H1578       H  0.14794365  0.25068198  0.11640078     0.12400
H1579       H  0.12861456  0.25448697  0.14508416     0.13000
H1580       H  0.09788138  0.23580944  0.05761204     0.14900
C1581       C  0.14516829  0.24870521  0.32881419    -0.05100
C1582       C  0.14759236  0.24711935  0.29405484    -0.05000
C1583       C  0.13728446  0.24688466  0.26926615    -0.23200
C1584       C  0.12452289  0.24839818  0.27892924     0.19000
C1585       C  0.12149824  0.24913439  0.31387584     0.16200
C1586       C  0.13169152  0.24905061  0.33851157    -0.18200
C1587       C  0.10888861  0.25092328  0.32355820    -0.20000
C1588       C  0.09994130  0.25298520  0.29871168    -0.12600
C1589       C  0.10347565  0.25316847  0.26403438     0.04100
C1590       C  0.11536451  0.25023865  0.25426233    -0.24700
H1591       H  0.15785266  0.24687623  0.28592574     0.09100
H1592       H  0.13970008  0.24626509  0.24250182     0.12800
H1593       H  0.12956681  0.25015435  0.36525851     0.12700
H1594       H  0.10645918  0.25152420  0.35032095     0.12400
H1595       H  0.09100245  0.25546947  0.30662933     0.13000
H1596       H  0.11815029  0.25045911  0.22740690     0.14900
C1597       C  0.92577741  0.23001233  0.50288701    -0.05100
C1598       C  0.91948626  0.23762127  0.52175840    -0.05000
C1599       C  0.91157081  0.24414663  0.50529989    -0.23200
C1600       C  0.90989679  0.24335797  0.46952600     0.19000
C1601       C  0.91753198  0.23711137  0.45033471     0.16200
C1602       C  0.92535080  0.23049072  0.46700721    -0.18200
C1603       C  0.91630733  0.23654613  0.41470981    -0.20000
C1604       C  0.90658520  0.24080383  0.39834758    -0.12600
C1605       C  0.89763895  0.24564220  0.41697098     0.04100
C1606       C  0.89994360  0.24764857  0.45271986    -0.24700
H1607       H  0.90920146  0.23203148  0.04751053     0.09100
H1608       H  0.90604524  0.24904117  0.52068480     0.12800
H1609       H  0.93014191  0.22472316  0.45206053     0.12700
H1610       H  0.92226316  0.23205400  0.39949164     0.12400
H1611       H  0.90533575  0.23938523  0.37080575     0.13000
H1612       H  0.89318853  0.25133185  0.46755302     0.14900
C1613       C  0.91029152  0.21043786  0.17568187    -0.05100
C1614       C  0.90642607  0.20249352  0.20675622    -0.05000
C1615       C  0.90108373  0.20763374  0.23383621    -0.23200
C1616       C  0.89897300  0.22038416  0.22946361     0.19000
C1617       C  0.90341834  0.22878086  0.19857805     0.16200
C1618       C  0.90945981  0.22395445  0.17209400    -0.18200
C1619       C  0.90074065  0.24116434  0.19388266    -0.20000
C1620       C  0.89293885  0.24465878  0.21884460    -0.12600
C1621       C  0.88793261  0.23594146  0.24895812     0.04100
C1622       C  0.89154236  0.22420594  0.25459845    -0.24700
H1623       H  0.90694538  0.19197233  0.20951226     0.09100
H1624       H  0.89773521  0.20110679  0.25740858     0.12800
H1625       H  0.91220103  0.22986269  0.14770660     0.12700
H1626       H  0.90408221  0.24770482  0.17033778     0.12400
H1627       H  0.89036757  0.25381104  0.21407970     0.13000
H1628       H  0.88788582  0.21747540  0.27789466     0.14900
C1629       C  0.81032241  0.16143484  0.02320615    -0.05100
C1630       C  0.82034396  0.17661713  0.03474721    -0.05000
C1631       C  0.83632648  0.18284587  0.03361603    -0.23200
C1632       C  0.84238001  0.17374073  0.02179481     0.19000
C1633       C  0.83241172  0.15892018  0.00718927     0.16200
C1634       C  0.81629653  0.15292389  0.00740033    -0.18200
C1635       C  0.83865412  0.14984231  0.99580369    -0.20000
C1636       C  0.85430516  0.15475717  0.00205463    -0.12600
C1637       C  0.86372239  0.16877117  0.01952668     0.04100
C1638       C  0.85798805  0.17860131  0.02752132    -0.24700
H1639       H  0.81574656  0.18326656  0.04674878     0.09100
H1640       H  0.84385921  0.19428294  0.04444073     0.12800
H1641       H  0.80845863  0.14114764  0.99870251     0.12700
H1642       H  0.83125669  0.13855789  0.98417331     0.12400
H1643       H  0.85874464  0.14715751  0.99550908     0.13000
H1644       H  0.86542973  0.18953988  0.04058597     0.14900
C1645       C  0.86269447  0.09817187  0.42918387    -0.05100
C1646       C  0.86017740  0.09481525  0.46424875    -0.05000
C1647       C  0.87164789  0.10404852  0.48850286    -0.23200
C1648       C  0.88574608  0.11692717  0.47810364     0.19000
C1649       C  0.88886917  0.11955214  0.44281514     0.16200
C1650       C  0.87750709  0.10998465  0.41869620    -0.18200
C1651       C  0.90270009  0.13258023  0.43211878    -0.20000
C1652       C  0.91253597  0.14378720  0.45590946    -0.12600
C1653       C  0.90903166  0.14195072  0.49092028     0.04100
C1654       C  0.89608514  0.12799294  0.50209188    -0.24700
H1655       H  0.84896309  0.08576958  0.47312160     0.09100
H1656       H  0.86907006  0.10174398  0.51542667     0.12800
H1657       H  0.87974967  0.11263925  0.39176411     0.12700
H1658       H  0.90531133  0.13470994  0.40516104     0.12400
H1659       H  0.92235415  0.15443008  0.44671050     0.13000
H1660       H  0.89309819  0.12657149  0.52896702     0.14900
C1661       C  0.88792387  0.13463094  0.14611643    -0.05100
C1662       C  0.87315796  0.12330373  0.13406017    -0.05000
C1663       C  0.86298918  0.11101796  0.15484595    -0.23200
C1664       C  0.86720488  0.11003869  0.18856841     0.19000
C1665       C  0.88232125  0.12098275  0.20047657     0.16200
C1666       C  0.89271360  0.13305309  0.17893840    -0.18200
C1667       C  0.88636638  0.12033468  0.23451624    -0.20000
C1668       C  0.87523792  0.10984981  0.25714034    -0.12600
C1669       C  0.85992473  0.09952140  0.24614026     0.04100
C1670       C  0.85618003  0.09913841  0.21132510    -0.24700
H1671       H  0.86926961  0.12427968  0.10876700     0.09100
H1672       H  0.85151641  0.10276454  0.14512520     0.12800
H1673       H  0.90399285  0.14184994  0.18860149     0.12700
H1674       H  0.89785462  0.12856807  0.24419965     0.12400
H1675       H  0.87834230  0.11043435  0.28391647     0.13000
H1676       H  0.84432837  0.09147964  0.20274454     0.14900
C1677       C  0.97332521  0.20401891  0.10298834    -0.05100
C1678       C  0.98260881  0.20017484  0.08304916    -0.05000
C1679       C  0.99853603  0.20681006  0.09017858    -0.23200
C1680       C  0.00537911  0.21710549  0.11795860     0.19000
C1681       C  0.99590997  0.22029815  0.13938625     0.16200
C1682       C  0.98001774  0.21394250  0.13146039    -0.18200
C1683       C  0.00257100  0.23004618  0.16797462    -0.20000
C1684       C  0.01855832  0.23712456  0.17444552    -0.12600
C1685       C  0.02831951  0.23483739  0.15220925     0.04100
C1686       C  0.02154213  0.22453406  0.12423501    -0.24700
H1687       H  0.97763249  0.19243830  0.06123906     0.09100
H1688       H  0.00553750  0.20403745  0.07370641     0.12800
H1689       H  0.97284013  0.21672213  0.14735942     0.12700
H1690       H  0.99546784  0.23246619  0.18496063     0.12400
H1691       H  0.02339355  0.24497526  0.19611401     0.13000
H1692       H  0.02886420  0.22251791  0.10703506     0.14900
C1693       C  0.47450533  0.47751400  0.26750807    -0.05100
C1694       C  0.47861381  0.46737684  0.25204558    -0.05000
C1695       C  0.49382230  0.47041458  0.25395790    -0.23200
C1696       C  0.50506044  0.48355068  0.27160726     0.19000
C1697       C  0.50089575  0.49336992  0.28898874     0.16200
C1698       C  0.48557201  0.49028522  0.28674739    -0.18200
C1699       C  0.51228636  0.50640337  0.30703857    -0.20000
C1700       C  0.52783209  0.51013481  0.30608725    -0.12600
C1701       C  0.53197906  0.50086796  0.28695903     0.04100
C1702       C  0.52053277  0.48736969  0.27079552    -0.24700
H1703       H  0.47020500  0.45744040  0.23724491     0.09100
H1704       H  0.49689208  0.46275795  0.24077916     0.12800
H1705       H  0.48235281  0.49799253  0.29916791     0.12700
H1706       H  0.50926183  0.51395357  0.32082443     0.12400
H1707       H  0.53665185  0.52058850  0.31874047     0.13000
H1708       H  0.52380096  0.48011936  0.25644267     0.14900
C1709       C  0.44435169  0.40968481  0.40777637    -0.05100
C1710       C  0.44124528  0.40305702  0.37489034    -0.05000
C1711       C  0.43185600  0.40555973  0.35198603    -0.23200
C1712       C  0.42555834  0.41488522  0.36145328     0.19000
C1713       C  0.42773592  0.42077008  0.39509321     0.16200
C1714       C  0.43688425  0.41792636  0.41814448    -0.18200
C1715       C  0.42168667  0.43033885  0.40433504    -0.20000
C1716       C  0.41491011  0.43528777  0.37957765    -0.12600
C1717       C  0.41378855  0.43050023  0.34531813     0.04100
C1718       C  0.41823111  0.41943513  0.33710960    -0.24700
H1719       H  0.44675526  0.39667547  0.36622607     0.09100
H1720       H  0.43022532  0.40090264  0.32624877     0.12800
H1721       H  0.43897550  0.42298798  0.44357709     0.12700
H1722       H  0.42314830  0.43484799  0.43018041     0.12400
H1723       H  0.41167317  0.44377322  0.38674246     0.13000
H1724       H  0.41735570  0.41546465  0.31090743     0.14900
C1725       C  0.41974386  0.43417539  0.14912651    -0.05100
C1726       C  0.41821641  0.41954665  0.15438046    -0.05000
C1727       C  0.42584974  0.41421841  0.13317421    -0.23200
C1728       C  0.43548252  0.42363014  0.10693841     0.19000
C1729       C  0.43641984  0.43801683  0.10048161     0.16200
C1730       C  0.42823692  0.44300727  0.12104047    -0.18200
C1731       C  0.44628920  0.44764717  0.07495119    -0.20000
C1732       C  0.45541521  0.44327589  0.05646751    -0.12600
C1733       C  0.45484812  0.42911467  0.06289082     0.04100
C1734       C  0.44464973  0.41921868  0.08798390    -0.24700
H1735       H  0.41188246  0.41265762  0.17622904     0.09100
H1736       H  0.42490984  0.40313828  0.13850580     0.12800
H1737       H  0.42979834  0.45446994  0.11733385     0.12700
H1738       H  0.44720912  0.45873319  0.06973847     0.12400
H1739       H  0.46305359  0.45114118  0.03718135     0.13000
H1740       H  0.44399980  0.40824476  0.09307673     0.14900
C1741       C  0.30622547  0.42515452  0.18429257    -0.05100
C1742       C  0.31635074  0.43018712  0.15616509    -0.05000
C1743       C  0.33251162  0.43789005  0.16101961    -0.23200
C1744       C  0.33894277  0.44063330  0.19412800     0.19000
C1745       C  0.32896330  0.43602864  0.22261198     0.16200
C1746       C  0.31273911  0.42845654  0.21755830    -0.18200
C1747       C  0.33536050  0.43868888  0.25571696    -0.20000
C1748       C  0.35143583  0.44542211  0.26060708    -0.12600
C1749       C  0.36154073  0.44974988  0.23253430     0.04100
C1750       C  0.35512920  0.44752849  0.19922843    -0.24700
H1751       H  0.31177764  0.42790446  0.13028952     0.09100
H1752       H  0.33997074  0.44139484  0.13881725     0.12800
H1753       H  0.30518824  0.42469972  0.23962218     0.12700
H1754       H  0.32789221  0.43528529  0.27789506     0.12400
H1755       H  0.35592942  0.44701669  0.28648274     0.13000
H1756       H  0.36267107  0.45081284  0.17718047     0.14900
C1757       C  0.13724474  0.31885941  0.12937950    -0.05100
C1758       C  0.14692529  0.31394269  0.11489815    -0.05000
C1759       C  0.16230979  0.32459201  0.10771677    -0.23200
C1760       C  0.16828117  0.34021410  0.11600622     0.19000
C1761       C  0.15831389  0.34548538  0.12792938     0.16200
C1762       C  0.14261123  0.33471030  0.13376441    -0.18200
C1763       C  0.16458995  0.36114210  0.13707632    -0.20000
C1764       C  0.18071244  0.37094749  0.13839933    -0.12600
C1765       C  0.19052422  0.36513878  0.13008660     0.04100
C1766       C  0.18428393  0.35021866  0.11630023    -0.24700
H1767       H  0.14275897  0.30171856  0.11075501     0.09100
H1768       H  0.16979333  0.32044702  0.09823527     0.12800
H1769       H  0.13506703  0.33844894  0.14488542     0.12700
H1770       H  0.15714147  0.36544446  0.14586057     0.12400
H1771       H  0.18546123  0.38256548  0.14875211     0.13000
H1772       H  0.19194680  0.34587999  0.10929994     0.14900
C1773       C  0.24842276  0.35076174  0.08637163    -0.05100
C1774       C  0.25517856  0.35413603  0.05379670    -0.05000
C1775       C  0.25219334  0.34213460  0.03067067    -0.23200
C1776       C  0.24231011  0.32653950  0.03962683     0.19000
C1777       C  0.23614227  0.32294416  0.07288916     0.16200
C1778       C  0.23935790  0.33504216  0.09610243    -0.18200
C1779       C  0.22606760  0.30735432  0.08163731    -0.20000
C1780       C  0.22104138  0.29556910  0.05676494    -0.12600
C1781       C  0.22616034  0.29915370  0.02284297     0.04100
C1782       C  0.23757572  0.31460215  0.01512632    -0.24700
H1783       H  0.26214301  0.36604682  0.04558109     0.09100
H1784       H  0.25703919  0.34508074  0.00521717     0.12800
H1785       H  0.23412193  0.33218907  0.12122307     0.12700
H1786       H  0.22130582  0.30438750  0.10715908     0.12400
H1787       H  0.21220910  0.28389133  0.06345914     0.13000
H1788       H  0.24172974  0.31843507  0.48359183     0.14900
C1789       C  0.24216763  0.35189921  0.25923825    -0.05100
C1790       C  0.24895504  0.35606615  0.29194092    -0.05000
C1791       C  0.24632057  0.34462587  0.31580140    -0.23200
C1792       C  0.23683208  0.32887740  0.30725346     0.19000
C1793       C  0.23082311  0.32456711  0.27372444     0.16200
C1794       C  0.23363182  0.33609334  0.24988714    -0.18200
C1795       C  0.22131563  0.30881949  0.26519086    -0.20000
C1796       C  0.21661727  0.29751982  0.29049796    -0.12600
C1797       C  0.22148009  0.30184018  0.32452503     0.04100
C1798       C  0.23233897  0.31745299  0.33228665    -0.24700
H1799       H  0.25575897  0.36814876  0.29954116     0.09100
H1800       H  0.25113292  0.34809817  0.34134197     0.12800
H1801       H  0.22862200  0.33272125  0.22446091     0.12700
H1802       H  0.21676452  0.30533259  0.23946074     0.12400
H1803       H  0.20827741  0.28558594  0.28391290     0.13000
H1804       H  0.23631968  0.32089097  0.35841362     0.14900
C1805       C  0.22762558  0.91174224  0.26178733    -0.05100
C1806       C  0.22649211  0.91550607  0.29587540    -0.05000
C1807       C  0.23223292  0.91043720  0.32254470    -0.23200
C1808       C  0.23925695  0.90153585  0.31562698     0.19000
C1809       C  0.24129410  0.89840729  0.28143404     0.16200
C1810       C  0.23554847  0.90359858  0.25473879    -0.18200
C1811       C  0.24836032  0.88950692  0.27467955    -0.20000
C1812       C  0.25260546  0.88307437  0.30158428    -0.12600
C1813       C  0.24992287  0.88547752  0.33573317     0.04100
C1814       C  0.24364493  0.89516049  0.34239467    -0.24700
H1815       H  0.22041253  0.92163950  0.30206175     0.09100
H1816       H  0.23065147  0.91299011  0.34869494     0.12800
H1817       H  0.23661294  0.90067323  0.22852961     0.12700
H1818       H  0.25010980  0.88707046  0.24855982     0.12400
H1819       H  0.25739613  0.87572165  0.29561291     0.13000
H1820       H  0.24158468  0.89728992  0.36853697     0.14900
C1821       C  0.25987692  0.89474195  0.01815405    -0.05100
C1822       C  0.26285725  0.89476857  0.05323002    -0.05000
C1823       C  0.25781994  0.90199430  0.07644396    -0.23200
C1824       C  0.24922116  0.90875646  0.06494045     0.19000
C1825       C  0.24657317  0.90919831  0.02963966     0.16200
C1826       C  0.25230225  0.90258701  0.00644289    -0.18200
C1827       C  0.23729487  0.91522993  0.01828203    -0.20000
C1828       C  0.22981381  0.91980675  0.04188852    -0.12600
C1829       C  0.23184127  0.91878921  0.07712424     0.04100
C1830       C  0.24224195  0.91399104  0.08832492    -0.24700
H1831       H  0.26276250  0.88295710  0.57097328     0.09100
H1832       H  0.25987761  0.90152249  0.10350252     0.12800
H1833       H  0.24965843  0.90239788  0.97947767     0.12700
H1834       H  0.23511908  0.91557875  0.99124298     0.12400
H1835       H  0.22183462  0.92335893  0.03258742     0.13000
H1836       H  0.24394440  0.91308719  0.11540989     0.14900
C1837       C  0.19684160  0.84431486  0.46753157    -0.05100
C1838       C  0.19409584  0.85671465  0.46385828    -0.05000
C1839       C  0.17956367  0.85472176  0.47110831    -0.23200
C1840       C  0.16762784  0.84029071  0.48195221     0.19000
C1841       C  0.17057663  0.82804097  0.48799558     0.16200
C1842       C  0.18525697  0.83018428  0.48091527    -0.18200
C1843       C  0.15844712  0.81351085  0.49824798    -0.20000
C1844       C  0.14322540  0.81066998  0.49842146    -0.12600
C1845       C  0.14026676  0.82247552  0.48921255     0.04100
C1846       C  0.15248384  0.83747672  0.48344422    -0.24700
H1847       H  0.20297934  0.86776052  0.45393617     0.09100
H1848       H  0.17744374  0.86420013  0.46654146     0.12800
H1849       H  0.18744815  0.82067949  0.48433999     0.12700
H1850       H  0.16054443  0.80405732  0.50331514     0.12400
H1851       H  0.13371906  0.79897866  0.50250798     0.13000
H1852       H  0.14998093  0.84645874  0.47599541     0.14900
C1853       C  0.36312514  0.89685202  0.49082474    -0.05100
C1854       C  0.35329680  0.89228224  0.51941314    -0.05000
C1855       C  0.33711099  0.88465829  0.51527749    -0.23200
C1856       C  0.33037031  0.88148435  0.48244228     0.19000
C1857       C  0.34003251  0.88583915  0.45347785     0.16200
C1858       C  0.35628720  0.89341099  0.45781814    -0.18200
C1859       C  0.33327745  0.88276452  0.42064174    -0.20000
C1860       C  0.31711175  0.87559072  0.41651344    -0.12600
C1861       C  0.30733402  0.87128918  0.44511803     0.04100
C1862       C  0.31415064  0.87422738  0.47811718    -0.24700
H1863       H  0.35812263  0.89480779  0.54507108     0.09100
H1864       H  0.32986718  0.88141564  0.53780872     0.12800
H1865       H  0.36579362  0.89930588  0.92782791     0.12700
H1866       H  0.34297019  0.89032859  0.88982981     0.12400
H1867       H  0.31228434  0.87355856  0.39088299     0.13000
H1868       H  0.30687178  0.87107131  0.50059010     0.14900
C1869       C  0.42067009  0.96424013  0.10309475    -0.05100
C1870       C  0.42466016  0.96047154  0.13461502    -0.05000
C1871       C  0.43101500  0.97151403  0.16110282    -0.23200
C1872       C  0.43327220  0.98648162  0.15675860     0.19000
C1873       C  0.42804097  0.98998953  0.12633846     0.16200
C1874       C  0.42190878  0.97890074  0.09955845    -0.18200
C1875       C  0.42986251  0.00483293  0.12255908    -0.20000
C1876       C  0.43761327  0.01635339  0.14776000    -0.12600
C1877       C  0.44392507  0.01332994  0.17683982     0.04100
C1878       C  0.44134290  0.99820773  0.18155351    -0.24700
H1879       H  0.42401868  0.94938995  0.13785064     0.09100
H1880       H  0.43479175  0.96856191  0.18441674     0.12800
H1881       H  0.41890269  0.98195757  0.07533216     0.12700
H1882       H  0.42575507  0.00768933  0.09961473     0.12400
H1883       H  0.43942683  0.02786963  0.14362064     0.13000
H1884       H  0.44603776  0.99571899  0.20409145     0.14900
C1885       C  0.41698500  0.96698710  0.40775085    -0.05100
C1886       C  0.41813817  0.96398748  0.37305411    -0.05000
C1887       C  0.42326850  0.97589078  0.34899571    -0.23200
C1888       C  0.42758672  0.99103845  0.35937587     0.19000
C1889       C  0.42560555  0.99396862  0.39383506     0.16200
C1890       C  0.41992789  0.98185768  0.41751759    -0.18200
C1891       C  0.43056956  0.00920802  0.40469447    -0.20000
C1892       C  0.43851785  0.02157836  0.38224328    -0.12600
C1893       C  0.44096667  0.01881629  0.34829093     0.04100
C1894       C  0.43491707  0.00348117  0.33656757    -0.24700
H1895       H  0.41604156  0.95270890  0.36484091     0.09100
H1896       H  0.42473549  0.97344854  0.32267972     0.12800
H1897       H  0.41908983  0.98438403  0.44416765     0.12700
H1898       H  0.42917052  0.01164712  0.43105874     0.12400
H1899       H  0.44326634  0.03334581  0.39167417     0.13000
H1900       H  0.43714235  0.00136891  0.31053107     0.14900
C1901       C  0.47744868  0.97344469  0.97977981    -0.05100
C1902       C  0.48872337  0.97201677  0.47964340    -0.05000
C1903       C  0.50377193  0.98374032  0.47304486    -0.23200
C1904       C  0.50776951  0.99923608  0.47720703     0.19000
C1905       C  0.49680247  0.00005026  0.96798282     0.16200
C1906       C  0.48138576  0.98884728  0.97398038    -0.18200
C1907       C  0.50117739  0.01571714  0.96527063    -0.20000
C1908       C  0.51688691  0.02700014  0.96473391    -0.12600
C1909       C  0.52760276  0.02628526  0.48115853     0.04100
C1910       C  0.52307779  0.01086914  0.47327834    -0.24700
H1911       H  0.48584818  0.96006974  0.47651875     0.09100
H1912       H  0.51235492  0.98068991  0.46544408     0.12800
H1913       H  0.47264189  0.99224585  0.97563507     0.12700
H1914       H  0.49254225  0.01927555  0.96567378     0.12400
H1915       H  0.52014614  0.03911607  0.96508980     0.13000
H1916       H  0.53165951  0.00772258  0.46620362     0.14900
C1917       C  0.65183412  0.89056143  0.25057676    -0.05100
C1918       C  0.66606428  0.89748929  0.23309952    -0.05000
C1919       C  0.68015096  0.90554100  0.25113850    -0.23200
C1920       C  0.68017343  0.90692039  0.28687690     0.19000
C1921       C  0.66583984  0.90137766  0.30398217     0.16200
C1922       C  0.65178101  0.89313016  0.28579913    -0.18200
C1923       C  0.66573489  0.90309400  0.33943146    -0.20000
C1924       C  0.67943516  0.90859466  0.35822305    -0.12600
C1925       C  0.69351699  0.91234489  0.34203815     0.04100
C1926       C  0.69403024  0.91248959  0.30607010    -0.24700
H1927       H  0.66632031  0.89561807  0.20584240     0.09100
H1928       H  0.69097179  0.90989177  0.23738958     0.12800
H1929       H  0.64082062  0.88789383  0.29931941     0.12700
H1930       H  0.65491669  0.89927471  0.35287456     0.12400
H1931       H  0.67874779  0.90877432  0.38585683     0.13000
H1932       H  0.70480651  0.91549714  0.29323179     0.14900
C1933       C  0.65079288  0.88177784  0.08746327    -0.05100
C1934       C  0.64717796  0.88577825  0.05578602    -0.05000
C1935       C  0.65879668  0.89349972  0.03118693    -0.23200
C1936       C  0.67429916  0.89763750  0.03813904     0.19000
C1937       C  0.67821635  0.89460157  0.07078824     0.16200
C1938       C  0.66641841  0.88651368  0.09502398    -0.18200
C1939       C  0.69377579  0.89912688  0.07810578    -0.20000
C1940       C  0.70518343  0.90569670  0.05269960    -0.12600
C1941       C  0.70123252  0.90770977  0.01940540     0.04100
C1942       C  0.68579233  0.90402545  0.01258479    -0.24700
H1943       H  0.63525257  0.88227917  0.04946849     0.09100
H1944       H  0.65558732  0.89587004  0.00641377     0.12800
H1945       H  0.66932163  0.88360124  0.11956754     0.12700
H1946       H  0.69701073  0.89700278  0.10310182     0.12400
H1947       H  0.71641873  0.91275516  0.56301348     0.13000
H1948       H  0.68257402  0.90538773  0.98687436     0.14900
C1949       C  0.63825035  0.81801298  0.21237712    -0.05100
C1950       C  0.63621168  0.80585436  0.19077816    -0.05000
C1951       C  0.64545924  0.79921281  0.19487408    -0.23200
C1952       C  0.65725604  0.80516487  0.21966845     0.19000
C1953       C  0.65837830  0.81632275  0.24374146     0.16200
C1954       C  0.64838972  0.82231453  0.24061852    -0.18200
C1955       C  0.67067341  0.82263771  0.26761528    -0.20000
C1956       C  0.68293759  0.81967777  0.26419156    -0.12600
C1957       C  0.68258427  0.81002955  0.23756768     0.04100
C1958       C  0.66910800  0.80169141  0.21770212    -0.24700
H1959       H  0.62805068  0.80208787  0.16957795     0.09100
H1960       H  0.64435301  0.79047790  0.17663558     0.12800
H1961       H  0.64979620  0.83157868  0.25759082     0.12700
H1962       H  0.67156844  0.83099978  0.28664168     0.12400
H1963       H  0.69319455  0.82594835  0.28015427     0.13000
H1964       H  0.66873217  0.79390388  0.19771425     0.14900
C1965       C  0.48046326  0.90848871  0.17214356    -0.05100
C1966       C  0.48175838  0.90326719  0.13961245    -0.05000
C1967       C  0.47097709  0.90089232  0.11372069    -0.23200
C1968       C  0.45870210  0.90368573  0.12000292     0.19000
C1969       C  0.45654759  0.90768757  0.15340445     0.16200
C1970       C  0.46748827  0.91012607  0.17924069    -0.18200
C1971       C  0.44417084  0.91032888  0.15968656    -0.20000
C1972       C  0.43487727  0.91035632  0.13262672    -0.12600
C1973       C  0.43783703  0.90781018  0.09881525     0.04100
C1974       C  0.44932495  0.90373810  0.09299819    -0.24700
H1975       H  0.49176944  0.90218731  0.13346716     0.09100
H1976       H  0.47274850  0.89772036  0.08829591     0.12800
H1977       H  0.46652005  0.91432898  0.20421085     0.12700
H1978       H  0.44223723  0.91325069  0.18521785     0.12400
H1979       H  0.42622863  0.91362232  0.13782127     0.13000
H1980       H  0.45171645  0.90171139  0.06704355     0.14900
C1981       C  0.44099563  0.90907800  0.40608193    -0.05100
C1982       C  0.43884361  0.91158119  0.37164087    -0.05000
C1983       C  0.44830028  0.91088996  0.34597025    -0.23200
C1984       C  0.46008649  0.90759763  0.35413954     0.19000
C1985       C  0.46169186  0.90400688  0.38824649     0.16200
C1986       C  0.45213121  0.90472187  0.41393391    -0.18200
C1987       C  0.47357480  0.90085256  0.39647881    -0.20000
C1988       C  0.48447782  0.90242506  0.37181011    -0.12600
C1989       C  0.48351900  0.90681941  0.33827653     0.04100
C1990       C  0.47096211  0.90890771  0.32935782    -0.24700
H1991       H  0.43052916  0.91509453  0.36477699     0.09100
H1992       H  0.44685887  0.91363728  0.31995211     0.12800
H1993       H  0.45399740  0.90278869  0.44032918     0.12700
H1994       H  0.47499577  0.89807170  0.42248221     0.12400
H1995       H  0.49428057  0.90123884  0.37951906     0.13000
H1996       H  0.47042226  0.91281729  0.30385145     0.14900
C1997       C  0.55453391  0.90500376  0.23390047    -0.05100
C1998       C  0.57092725  0.91354099  0.23458745    -0.05000
C1999       C  0.57973349  0.90689619  0.22457542    -0.23200
C2000       C  0.57248241  0.89141677  0.21368645     0.19000
C2001       C  0.55607823  0.88240843  0.21350043     0.16200
C2002       C  0.54714842  0.88924115  0.22358299    -0.18200
C2003       C  0.54900597  0.86679037  0.20296937    -0.20000
C2004       C  0.55805496  0.86024293  0.19295427    -0.12600
C2005       C  0.57440882  0.86918657  0.19270926     0.04100
C2006       C  0.58146343  0.88485805  0.20310139    -0.24700
H2007       H  0.57711064  0.92561610  0.24241404     0.09100
H2008       H  0.59229548  0.91396412  0.22512539     0.12800
H2009       H  0.53457557  0.88243214  0.22270079     0.12700
H2010       H  0.53646139  0.85959645  0.20261927     0.12400
H2011       H  0.55222671  0.84815294  0.18528740     0.13000
H2012       H  0.59402693  0.89195500  0.20355372     0.14900
C2013       C  0.50537032  0.02209986  0.29624781    -0.05100
C2014       C  0.50178086  0.01307560  0.32584774    -0.05000
C2015       C  0.50614563  0.00182306  0.32840674    -0.23200
C2016       C  0.51387718  0.99945764  0.30114477     0.19000
C2017       C  0.51847535  0.00941732  0.27259065     0.16200
C2018       C  0.51454477  0.02088381  0.27084208    -0.18200
C2019       C  0.52581166  0.00700660  0.24482120    -0.20000
C2020       C  0.52746416  0.99404365  0.24398392    -0.12600
C2021       C  0.52217499  0.98361480  0.27129498     0.04100
C2022       C  0.51610616  0.98671362  0.30063177    -0.24700
H2023       H  0.49481846  0.01405136  0.34584896     0.09100
H2024       H  0.50266320  0.99439015  0.35062177     0.12800
H2025       H  0.51763179  0.02813053  0.24830255     0.12700
H2026       H  0.52948376  0.01465580  0.22294711     0.12400
H2027       H  0.53251251  0.99193087  0.22155188     0.13000
H2028       H  0.51210350  0.97864794  0.32177805     0.14900
C2029       C  0.59056294  0.02714175  0.40251786    -0.05100
C2030       C  0.59272542  0.03026404  0.36733718    -0.05000
C2031       C  0.58890484  0.01817351  0.34358951    -0.23200
C2032       C  0.58267116  0.00275258  0.35466033     0.19000
C2033       C  0.58136168  0.99973730  0.39006812     0.16200
C2034       C  0.58558252  0.01191459  0.41355943    -0.18200
C2035       C  0.57475716  0.98441828  0.40155900    -0.20000
C2036       C  0.56835124  0.97204412  0.37825970    -0.12600
C2037       C  0.56885120  0.97472315  0.34297921     0.04100
C2038       C  0.57669032  0.99018875  0.33119916    -0.24700
H2039       H  0.59645688  0.04181764  0.35807624     0.09100
H2040       H  0.59004087  0.02075254  0.31654371     0.12800
H2041       H  0.58395092  0.00929472  0.44060736     0.12700
H2042       H  0.57369689  0.98194970  0.42866541     0.12400
H2043       H  0.56230356  0.96030201  0.38790742     0.13000
H2044       H  0.57685716  0.99239469  0.30406346     0.14900
C2045       C  0.58287578  0.02228334  0.08584883    -0.05100
C2046       C  0.58758224  0.02689109  0.11991447    -0.05000
C2047       C  0.58386017  0.01576845  0.14546732    -0.23200
C2048       C  0.57522434  0.99986375  0.13739588     0.19000
C2049       C  0.57099781  0.99517475  0.10299837     0.16200
C2050       C  0.57505707  0.00636141  0.07753872    -0.18200
C2051       C  0.56194401  0.97935765  0.09476982    -0.20000
C2052       C  0.55623590  0.96830170  0.12062300    -0.12600
C2053       C  0.55996941  0.97281954  0.15492860     0.04100
C2054       C  0.56993211  0.98857877  0.16318921    -0.24700
H2055       H  0.59362168  0.03905578  0.12703196     0.09100
H2056       H  0.58720018  0.01959435  0.17169043     0.12800
H2057       H  0.57140803  0.00258213  0.05138974     0.12700
H2058       H  0.55860264  0.97560021  0.06850782     0.12400
H2059       H  0.54843208  0.95623880  0.11396812     0.13000
H2060       H  0.57252182  0.99212689  0.18978457     0.14900
C2061       C  0.47660438  0.55754916  0.39734856    -0.05100
C2062       C  0.47747914  0.56167372  0.36283695    -0.05000
C2063       C  0.46562506  0.55222785  0.33983412    -0.23200
C2064       C  0.45300719  0.53813908  0.35074040     0.19000
C2065       C  0.45137235  0.53440026  0.38584633     0.16200
C2066       C  0.46303616  0.54438633  0.40918403    -0.18200
C2067       C  0.43897585  0.52000437  0.39634134    -0.20000
C2068       C  0.42948995  0.50875437  0.37199921    -0.12600
C2069       C  0.43211766  0.51186489  0.33691892     0.04100
C2070       C  0.44308301  0.52702474  0.32667238    -0.24700
H2071       H  0.48782242  0.57172725  0.35325313     0.09100
H2072       H  0.46698901  0.55530291  0.31303560     0.12800
H2073       H  0.46239718  0.54099939  0.43568247     0.12700
H2074       H  0.43743568  0.51696742  0.42315685     0.12400
H2075       H  0.42114589  0.49720139  0.38056311     0.13000
H2076       H  0.44512419  0.52960533  0.29965078     0.14900
C2077       C  0.48418916  0.55125547  0.07717287    -0.05100
C2078       C  0.48663419  0.55789272  0.10998916    -0.05000
C2079       C  0.47664778  0.54957582  0.13690201    -0.23200
C2080       C  0.46393056  0.53458490  0.13121394     0.19000
C2081       C  0.46074092  0.52837200  0.09764156     0.16200
C2082       C  0.47097941  0.53665091  0.07098673    -0.18200
C2083       C  0.44779362  0.51363694  0.09156731    -0.20000
C2084       C  0.43866511  0.50468119  0.11874902    -0.12600
C2085       C  0.44244731  0.51015115  0.15259835     0.04100
C2086       C  0.45484320  0.52537094  0.15859568    -0.24700
H2087       H  0.49679399  0.56909737  0.11526535     0.09100
H2088       H  0.47919650  0.55462838  0.16236127     0.12800
H2089       H  0.46901230  0.53149999  0.04564536     0.12700
H2090       H  0.44507624  0.50878218  0.06592803     0.12400
H2091       H  0.42925463  0.49301815  0.11344180     0.13000
H2092       H  0.45781833  0.52975733  0.18459178     0.14900
C2093       C  0.55890000  0.57332274  0.09043147    -0.05100
C2094       C  0.55015891  0.56818461  0.12057540    -0.05000
C2095       C  0.55490402  0.56245201  0.14765251    -0.23200
C2096       C  0.56839881  0.56146652  0.14495892     0.19000
C2097       C  0.57794937  0.56754900  0.11587582     0.16200
C2098       C  0.57320009  0.57361529  0.08874178    -0.18200
C2099       C  0.59151270  0.56650773  0.11371030    -0.20000
C2100       C  0.59505281  0.55878228  0.13910207    -0.12600
C2101       C  0.58499970  0.55184041  0.16681351     0.04100
C2102       C  0.57195328  0.55366139  0.17000439    -0.24700
H2103       H  0.53908933  0.56774751  0.12234257     0.09100
H2104       H  0.54754397  0.55798362  0.16992245     0.12800
H2105       H  0.57988875  0.57728312  0.06538562     0.12700
H2106       H  0.59907834  0.57117586  0.09181956     0.12400
H2107       H  0.60520387  0.55757723  0.13622708     0.13000
H2108       H  0.56423137  0.54848205  0.19153576     0.14900
C2109       C  0.56664910  0.58169177  0.39673224    -0.05100
C2110       C  0.56683407  0.58386059  0.36127696    -0.05000
C2111       C  0.57537091  0.57968441  0.33996087    -0.23200
C2112       C  0.58337497  0.57272194  0.35366988     0.19000
C2113       C  0.58385715  0.57112701  0.38948676     0.16200
C2114       C  0.57583995  0.57604055  0.41088328    -0.18200
C2115       C  0.59115612  0.56339417  0.40299460    -0.20000
C2116       C  0.59657370  0.55603723  0.38111288    -0.12600
C2117       C  0.59532806  0.55684536  0.34547578     0.04100
C2118       C  0.58960510  0.56603080  0.33198104    -0.24700
H2119       H  0.55981603  0.58815950  0.34991028     0.09100
H2120       H  0.57486637  0.58096007  0.31255249     0.12800
H2121       H  0.57553410  0.57405420  0.43818968     0.12700
H2122       H  0.59166165  0.56207953  0.43038742     0.12400
H2123       H  0.60094141  0.54900643  0.39199712     0.13000
H2124       H  0.58837190  0.56651497  0.30450911     0.14900
C2125       C  0.52088491  0.47283155  0.94971813    -0.05100
C2126       C  0.53039273  0.48272324  0.47031801    -0.05000
C2127       C  0.53883683  0.49875933  0.97082533    -0.23200
C2128       C  0.53036681  0.50436231  0.95335794     0.19000
C2129       C  0.51834087  0.49448086  0.93046898     0.16200
C2130       C  0.51388762  0.47881984  0.92831622    -0.18200
C2131       C  0.50985516  0.49999669  0.91287533    -0.20000
C2132       C  0.51242146  0.51479221  0.91985049    -0.12600
C2133       C  0.52323974  0.52404282  0.94498617     0.04100
C2134       C  0.53270381  0.51914336  0.96063065    -0.24700
H2135       H  0.53742438  0.47972479  0.48613165     0.09100
H2136       H  0.54566783  0.50717361  0.47762413     0.12800
H2137       H  0.50385236  0.47099015  0.91290037     0.12700
H2138       H  0.50053748  0.49253108  0.89551062     0.12400
H2139       H  0.50516287  0.51856729  0.90745574     0.13000
H2140       H  0.54123236  0.52647324  0.97969774     0.14900
C2141       C  0.58213790  0.75778689  0.31968891    -0.05100
C2142       C  0.58627563  0.75733255  0.28552968    -0.05000
C2143       C  0.58583768  0.76745502  0.26115301    -0.23200
C2144       C  0.58144823  0.77835414  0.27064387     0.19000
C2145       C  0.57624441  0.77810993  0.30429671     0.16200
C2146       C  0.57631035  0.76766094  0.32820930    -0.18200
C2147       C  0.57230550  0.78920656  0.31447199    -0.20000
C2148       C  0.57465741  0.80120772  0.29248517    -0.12600
C2149       C  0.58040505  0.80204017  0.25943151     0.04100
C2150       C  0.58321620  0.79018607  0.24809740    -0.24700
H2151       H  0.59099027  0.75004335  0.27827848     0.09100
H2152       H  0.58984909  0.76741248  0.23546948     0.12800
H2153       H  0.57310052  0.76818787  0.35443637     0.12700
H2154       H  0.56828144  0.78915430  0.34019191     0.12400
H2155       H  0.57253719  0.81021922  0.30176607     0.13000
H2156       H  0.58796918  0.79090709  0.22283759     0.14900
C2157       C  0.58486551  0.76505551  0.00814487    -0.05100
C2158       C  0.58349848  0.76014888  0.04221929    -0.05000
C2159       C  0.58212374  0.76884401  0.06878893    -0.23200
C2160       C  0.58212419  0.78262306  0.06175670     0.19000
C2161       C  0.58245800  0.78714644  0.02746673     0.16200
C2162       C  0.58369594  0.77827139  0.00090856    -0.18200
C2163       C  0.58271677  0.80107965  0.02048958    -0.20000
C2164       C  0.58395574  0.81105462  0.04724547    -0.12600
C2165       C  0.58454226  0.80703451  0.08126456     0.04100
C2166       C  0.58299824  0.79253614  0.08842162    -0.24700
H2167       H  0.58014740  0.74645503  0.55222754     0.09100
H2168       H  0.58183203  0.76519529  0.09495494     0.12800
H2169       H  0.58467974  0.78218251  0.97474282     0.12700
H2170       H  0.58295208  0.80471512  0.99433366     0.12400
H2171       H  0.58550429  0.82233133  0.04131786     0.13000
H2172       H  0.58384780  0.78959719  0.11469980     0.14900
C2173       C  0.56976123  0.68402586  0.42635917    -0.05100
C2174       C  0.57179620  0.67464060  0.40245258    -0.05000
C2175       C  0.56492340  0.65863659  0.40740407    -0.23200
C2176       C  0.55563580  0.65160514  0.43611837     0.19000
C2177       C  0.55272510  0.66071023  0.45939072     0.16200
C2178       C  0.55995078  0.67688521  0.45460991    -0.18200
C2179       C  0.54295313  0.65349992  0.48746805    -0.20000
C2180       C  0.53656215  0.63754683  0.49301094    -0.12600
C2181       C  0.54013677  0.62862727  0.47108362     0.04100
C2182       C  0.54951908  0.63569947  0.44237889    -0.24700
H2183       H  0.57933031  0.67978853  0.38066592     0.09100
H2184       H  0.56715309  0.65180619  0.38912341     0.12800
H2185       H  0.55819337  0.68394272  0.47319173     0.12700
H2186       H  0.54044168  0.66023801  0.50541653     0.12400
H2187       H  0.52931866  0.63229228  0.51515668     0.13000
H2188       H  0.55215175  0.62881350  0.42509458     0.14900
C2189       C  0.69791623  0.85207600  0.41570267    -0.05100
C2190       C  0.70271477  0.84110616  0.41897309    -0.05000
C2191       C  0.69168465  0.82529014  0.41974771    -0.23200
C2192       C  0.67579463  0.82035663  0.41740129     0.19000
C2193       C  0.67103160  0.83140351  0.41342144     0.16200
C2194       C  0.68207122  0.84707127  0.41222807    -0.18200
C2195       C  0.65526073  0.82670333  0.41133354    -0.20000
C2196       C  0.64416648  0.81109485  0.41329772    -0.12600
C2197       C  0.64868630  0.79994792  0.41720784     0.04100
C2198       C  0.66455208  0.80463061  0.41923032    -0.24700
H2199       H  0.71490821  0.84475486  0.42173832     0.09100
H2200       H  0.69554248  0.81696868  0.42274633     0.12800
H2201       H  0.67821214  0.85541212  0.40942642     0.12700
H2202       H  0.65149957  0.83510608  0.40837007     0.12400
H2203       H  0.63202072  0.80776960  0.41164418     0.13000
H2204       H  0.66814774  0.79610274  0.42227632     0.14900
C2205       C  0.64317856  0.73806162  0.32982315    -0.05100
C2206       C  0.63982420  0.73605058  0.29455937    -0.05000
C2207       C  0.65185129  0.74068204  0.27051288    -0.23200
C2208       C  0.66748415  0.74761971  0.28129192     0.19000
C2209       C  0.67079314  0.74870211  0.31665889     0.16200
C2210       C  0.65868116  0.74364723  0.34046726    -0.18200
C2211       C  0.68628691  0.75591789  0.32792707    -0.20000
C2212       C  0.69846649  0.76309709  0.30465020    -0.12600
C2213       C  0.69550778  0.76290748  0.26946026     0.04100
C2214       C  0.67990570  0.75450165  0.25772530    -0.24700
H2215       H  0.62806088  0.73179333  0.28549320     0.09100
H2216       H  0.64900703  0.73963533  0.24352389     0.12800
H2217       H  0.66155062  0.74517636  0.36749632     0.12700
H2218       H  0.68900543  0.75682346  0.35497848     0.12400
H2219       H  0.71027258  0.76953471  0.31440118     0.13000
H2220       H  0.67740183  0.75452223  0.23075352     0.14900
C2221       C  0.63953791  0.74459876  0.02142749    -0.05100
C2222       C  0.63489300  0.74746928  0.05319307    -0.05000
C2223       C  0.64566905  0.75430665  0.07989678    -0.23200
C2224       C  0.66118927  0.75824044  0.07524062     0.19000
C2225       C  0.66558059  0.75397264  0.04455406     0.16200
C2226       C  0.65469527  0.74711811  0.01788562    -0.18200
C2227       C  0.68103088  0.75754735  0.04028426    -0.20000
C2228       C  0.69222204  0.76602759  0.06542584    -0.12600
C2229       C  0.68813500  0.77125144  0.09475820     0.04100
C2230       C  0.67254576  0.76701070  0.09997875    -0.24700
H2231       H  0.62330427  0.74565883  0.05646623     0.09100
H2232       H  0.64206354  0.75727640  0.10351218     0.12800
H2233       H  0.65811304  0.74461586  0.49068397     0.12700
H2234       H  0.68454928  0.75419491  0.01707154     0.12400
H2235       H  0.70417102  0.76905467  0.06137097     0.13000
H2236       H  0.66934418  0.77080178  0.12304996     0.14900
C2237       C  0.15302282  0.79999724  0.14885020    -0.05100
C2238       C  0.14281943  0.80316453  0.16705005    -0.05000
C2239       C  0.14478470  0.81799970  0.16668567    -0.23200
C2240       C  0.15736382  0.82991771  0.14926189     0.19000
C2241       C  0.16740994  0.82663335  0.13009331     0.16200
C2242       C  0.16487891  0.81154954  0.12922260    -0.18200
C2243       C  0.18042962  0.83867107  0.11411645    -0.20000
C2244       C  0.18402143  0.85396737  0.11891888    -0.12600
C2245       C  0.17437253  0.85733957  0.13887385     0.04100
C2246       C  0.16069442  0.84522192  0.15271052    -0.24700
H2247       H  0.13360107  0.79425330  0.18224118     0.09100
H2248       H  0.13700008  0.82033680  0.18149366     0.12800
H2249       H  0.17287811  0.80908942  0.11560383     0.12700
H2250       H  0.18822494  0.83633559  0.09934164     0.12400
H2251       H  0.19455560  0.86319644  0.10776839     0.13000
H2252       H  0.15326595  0.84777848  0.16831570     0.14900
C2253       C  0.12370100  0.75092252  0.27898024    -0.05100
C2254       C  0.13314224  0.75783642  0.30799580    -0.05000
C2255       C  0.12860217  0.76452838  0.33347589    -0.23200
C2256       C  0.11461458  0.76454345  0.33018218     0.19000
C2257       C  0.10434698  0.75636854  0.30279632     0.16200
C2258       C  0.10886916  0.74937246  0.27755621    -0.18200
C2259       C  0.09023719  0.75626906  0.29997328    -0.20000
C2260       C  0.08673867  0.76486389  0.32299764    -0.12600
C2261       C  0.09741491  0.77383395  0.34874771     0.04100
C2262       C  0.11111896  0.77327171  0.35278786    -0.24700
H2263       H  0.14453450  0.75900274  0.30984447     0.09100
H2264       H  0.13646085  0.77049563  0.35469750     0.12800
H2265       H  0.10149631  0.74406818  0.25527986     0.12700
H2266       H  0.08213998  0.74994438  0.27935928     0.12400
H2267       H  0.07599205  0.76498034  0.31994115     0.13000
H2268       H  0.11921196  0.77989249  0.37323249     0.14900
C2269       C  0.10562099  0.74101415  0.08794412    -0.05100
C2270       C  0.10467596  0.73781527  0.05268761    -0.05000
C2271       C  0.09689991  0.74267046  0.03047869    -0.23200
C2272       C  0.09043531  0.75141020  0.04286615     0.19000
C2273       C  0.09077026  0.75419946  0.07843779     0.16200
C2274       C  0.09801169  0.74864778  0.10084361    -0.18200
C2275       C  0.08496710  0.76354164  0.09066273    -0.20000
C2276       C  0.07993965  0.77092245  0.06781391    -0.12600
C2277       C  0.08018454  0.76883101  0.03221672     0.04100
C2278       C  0.08481109  0.75843219  0.02007608    -0.24700
H2279       H  0.11064498  0.73220751  0.04207110     0.09100
H2280       H  0.09681585  0.74043687  0.00331865     0.12800
H2281       H  0.09905908  0.75160683  0.12781458     0.12700
H2282       H  0.08513811  0.76585913  0.11780309     0.12400
H2283       H  0.07653182  0.77888006  0.07798592     0.13000
H2284       H  0.08283517  0.75334046  0.48375419     0.14900
C2285       C  0.20023460  0.77814207  0.23916263    -0.05100
C2286       C  0.21105522  0.79305181  0.22757930    -0.05000
C2287       C  0.22219232  0.80409043  0.24987127    -0.23200
C2288       C  0.22235617  0.80055069  0.28445861     0.19000
C2289       C  0.21198741  0.78530653  0.29588521     0.16200
C2290       C  0.20125011  0.77408349  0.27293245    -0.18200
C2291       C  0.21162135  0.78189455  0.33066024    -0.20000
C2292       C  0.22059158  0.79365749  0.35417388    -0.12600
C2293       C  0.23043813  0.80897485  0.34335620     0.04100
C2294       C  0.23178557  0.81224914  0.30824215    -0.24700
H2295       H  0.21031101  0.79641630  0.20165219     0.09100
H2296       H  0.22999545  0.81566867  0.24056012     0.12800
H2297       H  0.19267743  0.76272955  0.28218454     0.12700
H2298       H  0.20374967  0.77032518  0.33993778     0.12400
H2299       H  0.21934945  0.79092202  0.38117263     0.13000
H2300       H  0.23909977  0.82409308  0.29980671     0.14900
C2301       C  0.23606062  0.80933862  0.02137129    -0.05100
C2302       C  0.23957665  0.81224859  0.05643311    -0.05000
C2303       C  0.23080022  0.80083787  0.08066956    -0.23200
C2304       C  0.21824892  0.78640800  0.07022154     0.19000
C2305       C  0.21548765  0.78296331  0.03493177     0.16200
C2306       C  0.22460353  0.79429573  0.01084730    -0.18200
C2307       C  0.20269390  0.76881279  0.02421769    -0.20000
C2308       C  0.19182487  0.75888553  0.04801832    -0.12600
C2309       C  0.19387921  0.76260785  0.08299437     0.04100
C2310       C  0.20756596  0.77599793  0.09415999    -0.24700
H2311       H  0.24830929  0.82368769  0.06529005     0.09100
H2312       H  0.23316164  0.80367509  0.10760802     0.12800
H2313       H  0.21851303  0.78922302  0.48299059     0.12700
H2314       H  0.20042419  0.76600177  0.99724473     0.12400
H2315       H  0.18122947  0.74883725  0.03890120     0.13000
H2316       H  0.20898297  0.77917690  0.12104027     0.14900
C2317       C  0.09953750  0.63820252  0.24856632    -0.05100
C2318       C  0.09799173  0.64837333  0.27103268    -0.05000
C2319       C  0.10570498  0.66433740  0.26471205    -0.23200
C2320       C  0.11531976  0.67049726  0.23604838     0.19000
C2321       C  0.11780475  0.66055780  0.21449097     0.16200
C2322       C  0.10977712  0.64446400  0.22066122    -0.18200
C2323       C  0.12788870  0.66685741  0.18651757    -0.20000
C2324       C  0.13490671  0.68272292  0.17914405    -0.12600
C2325       C  0.13168676  0.69247752  0.19912502     0.04100
C2326       C  0.12210207  0.68632779  0.22797299    -0.24700
H2327       H  0.09016970  0.64388996  0.29256658     0.09100
H2328       H  0.10381296  0.67181460  0.28175110     0.12800
H2329       H  0.11118287  0.63677314  0.20326565     0.12700
H2330       H  0.13009636  0.65946042  0.16993136     0.12400
H2331       H  0.14231706  0.68724754  0.15696941     0.13000
H2332       H  0.11975688  0.69385263  0.24382488     0.14900
C2333       C  0.02610000  0.58802546  0.34897190    -0.05100
C2334       C  0.02980008  0.58919413  0.38401109    -0.05000
C2335       C  0.01803521  0.58393907  0.40878510    -0.23200
C2336       C  0.00231231  0.57702855  0.39890800     0.19000
C2337       C  0.99861238  0.57689618  0.36397498     0.16200
C2338       C  0.01051085  0.58282139  0.33951326    -0.18200
C2339       C  0.98297499  0.56948679  0.35357010    -0.20000
C2340       C  0.97113975  0.56100245  0.37697990    -0.12600
C2341       C  0.97462450  0.56029138  0.41149429     0.04100
C2342       C  0.99022493  0.56903957  0.42272075    -0.24700
H2343       H  0.04163140  0.59318947  0.39219896     0.09100
H2344       H  0.02114467  0.58427219  0.43545855     0.12800
H2345       H  0.00735368  0.58192755  0.31270987     0.12700
H2346       H  0.97994027  0.56928722  0.32687930     0.12400
H2347       H  0.95926368  0.55427697  0.36775634     0.13000
H2348       H  0.99305619  0.56829286  0.44915732     0.14900
C2349       C  0.02883794  0.58237199  0.15304784    -0.05100
C2350       C  0.01693035  0.58594552  0.15568322    -0.05000
C2351       C  0.00418798  0.57914148  0.13334691    -0.23200
C2352       C  0.00288073  0.56814938  0.10907271     0.19000
C2353       C  0.01522420  0.56510824  0.10521602     0.16200
C2354       C  0.02836537  0.57265384  0.12648555    -0.18200
C2355       C  0.01369485  0.55365655  0.08210110    -0.20000
C2356       C  0.99979104  0.54475669  0.06422792    -0.12600
C2357       C  0.98728800  0.54737620  0.06852044     0.04100
C2358       C  0.98909121  0.55946666  0.09014809    -0.24700
H2359       H  0.01701428  0.59320988  0.17646771     0.09100
H2360       H  0.99486739  0.58163447  0.13668107     0.12800
H2361       H  0.03732212  0.56952874  0.12502513     0.12700
H2362       H  0.02303729  0.55119386  0.07876932     0.12400
H2363       H  0.99881442  0.53577004  0.04698800     0.13000
H2364       H  0.97954795  0.56164145  0.09340387     0.14900
C2365       C  0.01419337  0.52602064  0.27310070    -0.05100
C2366       C  0.99880976  0.52239401  0.26721999    -0.05000
C2367       C  0.98674454  0.50709636  0.26901319    -0.23200
C2368       C  0.99000113  0.49531507  0.27636040     0.19000
C2369       C  0.00534635  0.49900449  0.28420242     0.16200
C2370       C  0.01731159  0.51437406  0.28300999    -0.18200
C2371       C  0.00860888  0.48718909  0.29116390    -0.20000
C2372       C  0.99690856  0.47174075  0.28799897    -0.12600
C2373       C  0.98181342  0.46802321  0.27841800     0.04100
C2374       C  0.97830498  0.47986258  0.27407552    -0.24700
H2375       H  0.99616531  0.53127093  0.25996369     0.09100
H2376       H  0.97499343  0.50441105  0.26322652     0.12800
H2377       H  0.02914086  0.51714025  0.28821712     0.12700
H2378       H  0.02030715  0.48987931  0.29755978     0.12400
H2379       H  0.99977480  0.46274436  0.29203699     0.13000
H2380       H  0.96663958  0.47710995  0.26707884     0.14900
C2381       C  0.22879775  0.41530518  0.26298496    -0.05100
C2382       C  0.23386604  0.41746510  0.29715487    -0.05000
C2383       C  0.22568420  0.42022502  0.32262454    -0.23200
C2384       C  0.21207322  0.42050740  0.31448316     0.19000
C2385       C  0.20719942  0.41906677  0.28013699     0.16200
C2386       C  0.21574505  0.41676086  0.25455351    -0.18200
C2387       C  0.19329532  0.41890072  0.27230881    -0.20000
C2388       C  0.18350701  0.41851251  0.29856373    -0.12600
C2389       C  0.18771299  0.41868774  0.33291154     0.04100
C2390       C  0.20260481  0.42090167  0.34042443    -0.24700
H2391       H  0.24385917  0.41652100  0.30438386     0.09100
H2392       H  0.22955936  0.42134402  0.34894952     0.12800
H2393       H  0.21164963  0.41519048  0.22832052     0.12700
H2394       H  0.18947194  0.41796992  0.24599349     0.12400
H2395       H  0.17221472  0.41690865  0.29201419     0.13000
H2396       H  0.20622100  0.42138741  0.36680594     0.14900
C2397       C  0.19400971  0.41989770  0.01627541    -0.05100
C2398       C  0.19181381  0.42103963  0.05136204    -0.05000
C2399       C  0.20304645  0.42249908  0.07514622    -0.23200
C2400       C  0.21643239  0.42237256  0.06427343     0.19000
C2401       C  0.21889134  0.42147092  0.02907735     0.16200
C2402       C  0.20789177  0.42062364  0.00537532    -0.18200
C2403       C  0.23183829  0.42051300  0.01824307    -0.20000
C2404       C  0.24186731  0.41968257  0.04221335    -0.12600
C2405       C  0.23941062  0.42033788  0.07732267     0.04100
C2406       C  0.22691348  0.42220565  0.08807365    -0.24700
H2407       H  0.18122523  0.42034282  0.06046093     0.09100
H2408       H  0.20094697  0.42305888  0.10214310     0.12800
H2409       H  0.20515882  0.41397719  0.47907398     0.12700
H2410       H  0.22893426  0.41284084  0.48802450     0.12400
H2411       H  0.25124588  0.41805834  0.03335709     0.13000
H2412       H  0.22461824  0.42235414  0.11511655     0.14900
C2413       C  0.08299858  0.30807885  0.25884300    -0.05100
C2414       C  0.08133241  0.30309382  0.29291275    -0.05000
C2415       C  0.08702928  0.31387521  0.31991760    -0.23200
C2416       C  0.09458315  0.32985991  0.31335151     0.19000
C2417       C  0.09518527  0.33499622  0.27956515     0.16200
C2418       C  0.08922323  0.32407096  0.25257218    -0.18200
C2419       C  0.10268788  0.35101868  0.27314656    -0.20000
C2420       C  0.11054986  0.36184028  0.29952166    -0.12600
C2421       C  0.11101378  0.35682091  0.33274655     0.04100
C2422       C  0.10238276  0.34077050  0.33966777    -0.24700
H2423       H  0.07653514  0.29092392  0.29862628     0.09100
H2424       H  0.08628584  0.30973814  0.34578426     0.12800
H2425       H  0.09044565  0.32814227  0.22650695     0.12700
H2426       H  0.10311197  0.35517417  0.24742018     0.12400
H2427       H  0.11696346  0.37407470  0.29352225     0.13000
H2428       H  0.10238074  0.33669578  0.36530681     0.14900
C2429       C  0.11077550  0.35518856  0.01074629    -0.05100
C2430       C  0.10959756  0.35801979  0.04549519    -0.05000
C2431       C  0.10105169  0.34562925  0.06771996    -0.23200
C2432       C  0.09388794  0.33022729  0.05564749     0.19000
C2433       C  0.09457489  0.32727424  0.02061688     0.16200
C2434       C  0.10263959  0.33973659  0.99836548    -0.18200
C2435       C  0.08806095  0.31190327  0.00872336    -0.20000
C2436       C  0.08179125  0.29956867  0.03177689    -0.12600
C2437       C  0.08140156  0.30239739  0.06681756     0.04100
C2438       C  0.08692210  0.31775215  0.07833404    -0.24700
H2439       H  0.11575637  0.36972752  0.05573377     0.09100
H2440       H  0.10066099  0.34805830  0.09460828     0.12800
H2441       H  0.10335960  0.33726280  0.97163838     0.12700
H2442       H  0.08854543  0.30948815  0.98186398     0.12400
H2443       H  0.07768806  0.28789805  0.02238620     0.13000
H2444       H  0.08694336  0.32015392  0.10540127     0.14900
C2445       C  0.17197150  0.35793610  0.44945468    -0.05100
C2446       C  0.18784049  0.36286279  0.44669881    -0.05000
C2447       C  0.19285700  0.35210967  0.44922211    -0.23200
C2448       C  0.18202170  0.33637018  0.45430304     0.19000
C2449       C  0.16621998  0.33163961  0.45951868     0.16200
C2450       C  0.16137156  0.34247019  0.45756825    -0.18200
C2451       C  0.15529672  0.31598764  0.46441411    -0.20000
C2452       C  0.15975158  0.30489982  0.46144402    -0.12600
C2453       C  0.17522901  0.30934083  0.45394135     0.04100
C2454       C  0.18648528  0.32516303  0.45207110    -0.24700
H2455       H  0.19622290  0.37482629  0.44098449     0.09100
H2456       H  0.20504844  0.35596279  0.44557954     0.12800
H2457       H  0.14914295  0.33865363  0.46060661     0.12700
H2458       H  0.14317409  0.31224899  0.46881164     0.12400
H2459       H  0.15091632  0.29278731  0.46358390     0.13000
H2460       H  0.19848172  0.32870458  0.44660923     0.14900
C2461       C  0.07735822  0.51518675  0.08458900    -0.05100
C2462       C  0.07716181  0.51041901  0.11833920    -0.05000
C2463       C  0.07875297  0.52014768  0.14589940    -0.23200
C2464       C  0.08041544  0.53478275  0.14013451     0.19000
C2465       C  0.08138276  0.54000937  0.10622381     0.16200
C2466       C  0.07980645  0.53014537  0.07860106    -0.18200
C2467       C  0.08306581  0.55466496  0.10059020    -0.20000
C2468       C  0.08273454  0.56358732  0.12807851    -0.12600
C2469       C  0.08068064  0.55802865  0.16174397     0.04100
C2470       C  0.08017027  0.54384158  0.16760289    -0.24700
H2471       H  0.07503666  0.49885166  0.12339016     0.09100
H2472       H  0.07801954  0.51595795  0.17170983     0.12800
H2473       H  0.07970987  0.53377027  0.05256911     0.12700
H2474       H  0.08396374  0.55893893  0.07481348     0.12400
H2475       H  0.08315621  0.57442571  0.12272871     0.13000
H2476       H  0.07869746  0.53941387  0.19339374     0.14900
C2477       C  0.08533477  0.56413956  0.35140004    -0.05100
C2478       C  0.08351663  0.56619550  0.38632890    -0.05000
C2479       C  0.08418229  0.55627707  0.41086521    -0.23200
C2480       C  0.08648307  0.54400824  0.40082443     0.19000
C2481       C  0.08945183  0.54260681  0.36608022     0.16200
C2482       C  0.08920045  0.55284126  0.34188206    -0.18200
C2483       C  0.09129311  0.53017233  0.35549221    -0.20000
C2484       C  0.08901563  0.51855094  0.37851258    -0.12600
C2485       C  0.08538083  0.51936126  0.41280314     0.04100
C2486       C  0.08469730  0.53245460  0.42420113    -0.24700
H2487       H  0.08039715  0.57466275  0.39441383     0.09100
H2488       H  0.08193568  0.55760561  0.43737922     0.12800
H2489       H  0.09066945  0.55110281  0.31507032     0.12700
H2490       H  0.09353278  0.52891518  0.32892331     0.12400
H2491       H  0.08931262  0.50847017  0.36912390     0.13000
H2492       H  0.08147346  0.53295658  0.45041593     0.14900
C2493       C  0.09653627  0.45478411  0.48854723    -0.05100
C2494       C  0.10752966  0.45678256  0.51360430    -0.05000
C2495       C  0.11687961  0.45005494  0.50930972    -0.23200
C2496       C  0.11560381  0.44148372  0.47951750     0.19000
C2497       C  0.10486546  0.43984601  0.45379460     0.16200
C2498       C  0.09526558  0.44627850  0.45871095    -0.18200
C2499       C  0.10378893  0.43167840  0.42364334    -0.20000
C2500       C  0.11311489  0.42503090  0.41902841    -0.12600
C2501       C  0.12356210  0.42611299  0.44466306     0.04100
C2502       C  0.12473178  0.43441684  0.47503112    -0.24700
H2503       H  0.10855416  0.46315545  0.53691889     0.09100
H2504       H  0.12504847  0.45149428  0.52933544     0.12800
H2505       H  0.08676034  0.44466878  0.43932638     0.12700
H2506       H  0.09564541  0.43034094  0.40364155     0.12400
H2507       H  0.11177076  0.41857914  0.39565437     0.13000
H2508       H  0.13268215  0.43534588  0.49511591     0.14900
C2509       C  0.00886564  0.47448141  0.95399108    -0.05100
C2510       C  0.99630500  0.46495192  0.97507044    -0.05000
C2511       C  0.98250876  0.46517309  0.97289191    -0.23200
C2512       C  0.98130140  0.47531609  0.95030121     0.19000
C2513       C  0.99067651  0.47995339  0.43275866     0.16200
C2514       C  0.00427800  0.47900860  0.43365108    -0.18200
C2515       C  0.98848192  0.48873301  0.40773862    -0.20000
C2516       C  0.97687903  0.49261180  0.41195567    -0.12600
C2517       C  0.96903975  0.49014619  0.93525526     0.04100
C2518       C  0.96900630  0.47812897  0.95354664    -0.24700
H2519       H  0.99745710  0.45784799  0.99439468     0.09100
H2520       H  0.97324793  0.45829199  0.99065315     0.12800
H2521       H  0.01315221  0.48480352  0.41439683     0.12700
H2522       H  0.99653350  0.49370593  0.38667548     0.12400
H2523       H  0.97639305  0.50075498  0.39454701     0.13000
H2524       H  0.96036251  0.47221951  0.97323002     0.14900
C2525       C  0.97233098  0.41146124  0.15675076    -0.05100
C2526       C  0.96737096  0.41218851  0.12351607    -0.05000
C2527       C  0.97807533  0.41825443  0.09671732    -0.23200
C2528       C  0.99390330  0.42355619  0.10266513     0.19000
C2529       C  0.99883281  0.42178403  0.13536977     0.16200
C2530       C  0.98802484  0.41576357  0.16217520    -0.18200
C2531       C  0.01464499  0.42687559  0.14115544    -0.20000
C2532       C  0.02558837  0.43436008  0.11525491    -0.12600
C2533       C  0.02089158  0.43698451  0.08340283     0.04100
C2534       C  0.00498792  0.43127015  0.07699702    -0.24700
H2535       H  0.95543111  0.40911759  0.11874819     0.09100
H2536       H  0.97408822  0.41941397  0.07170759     0.12800
H2537       H  0.99199095  0.41523855  0.18770818     0.12700
H2538       H  0.01861224  0.42553677  0.16603190     0.12400
H2539       H  0.03779311  0.43878903  0.12063882     0.13000
H2540       H  0.00134155  0.43331167  0.05237048     0.14900
C2541       C  0.02528915  0.43020469  0.40587275    -0.05100
C2542       C  0.02819788  0.43005497  0.37085207    -0.05000
C2543       C  0.01588589  0.42208122  0.34782246    -0.23200
C2544       C  0.00048935  0.41484305  0.35939935     0.19000
C2545       C  0.99746584  0.41438754  0.39473808     0.16200
C2546       C  0.00993892  0.42162989  0.41788204    -0.18200
C2547       C  0.98207257  0.40800409  0.40601109    -0.20000
C2548       C  0.96996297  0.40360527  0.38230796    -0.12600
C2549       C  0.97304938  0.40501982  0.34708809     0.04100
C2550       C  0.98818942  0.40952489  0.33596573    -0.24700
H2551       H  0.03993379  0.43667484  0.36117759     0.09100
H2552       H  0.01836421  0.42256809  0.32075449     0.12800
H2553       H  0.00760374  0.42199142  0.44483333     0.12700
H2554       H  0.97956051  0.40752810  0.43305462     0.12400
H2555       H  0.95841378  0.40005669  0.39154525     0.13000
H2556       H  0.99078909  0.41057282  0.30888709     0.14900
Zn2557     Zn  0.05314863  0.45234034  0.99848256     1.49700
Zn2558     Zn  0.05172487  0.47362125  0.94170485     1.49400
Zn2559     Zn  0.04483631  0.47695825  0.52397340     1.49100
Zn2560     Zn  0.07944145  0.48882549  0.99615652     1.49500
O2561       O  0.05670715  0.47238590  0.49268404    -1.84000
O2562       O  0.03757325  0.43856490  0.96259072    -0.74600
O2563       O  0.03180502  0.47422713  0.93905277    -0.74400
O2564       O  0.03306276  0.45970733  0.55746871    -0.73900
O2565       O  0.04587262  0.45358014  0.91681599    -0.74600
O2566       O  0.03834422  0.44130798  0.54301346    -0.74200
O2567       O  0.02779315  0.47748755  0.49903289    -0.74800
O2568       O  0.08233027  0.49950647  0.54354314    -0.74200
O2569       O  0.06791245  0.49291023  0.91807421    -0.75000
O2570       O  0.05880018  0.49681734  0.54938621    -0.74300
O2571       O  0.08598001  0.50534967  0.95830859    -0.74800
O2572       O  0.09197008  0.47714201  0.99344856    -0.74700
O2573       O  0.07340181  0.45205857  0.99439705    -0.74500
C2574       C  0.03663062  0.44066024  0.93080042     0.77300
C2575       C  0.02259837  0.47430008  0.46853806     0.77800
C2576       C  0.03123863  0.44627205  0.56168271     0.76700
C2577       C  0.07320897  0.50353128  0.55714046     0.77100
C2578       C  0.08020016  0.50494508  0.92880690     0.78200
C2579       C  0.08769763  0.46264947  0.99227737     0.77300
Zn2580     Zn  0.13865374  0.37273774  0.92171815     1.49700
Zn2581     Zn  0.14679697  0.40089659  0.97073287     1.49400
Zn2582     Zn  0.17216921  0.40109597  0.92412660     1.49100
Zn2583     Zn  0.14575017  0.40363328  0.88440199     1.49500
O2584       O  0.15045198  0.39493311  0.92497832    -1.84000
O2585       O  0.12380600  0.36334254  0.95854482    -0.74600
O2586       O  0.16712192  0.40996879  0.00005172    -0.74400
O2587       O  0.17574042  0.38352618  0.93109089    -0.73900
O2588       O  0.12990395  0.38180263  0.99722815    -0.74600
O2589       O  0.15187592  0.36347510  0.92628088    -0.74200
O2590       O  0.18476238  0.41601540  0.95970424    -0.74800
O2591       O  0.16545332  0.41484309  0.85235995    -0.74200
O2592       O  0.13899139  0.41610437  0.96228637    -0.75000
O2593       O  0.18178564  0.40999743  0.88081800    -0.74300
O2594       O  0.13755193  0.41756792  0.90516311    -0.74800
O2595       O  0.12908023  0.38574128  0.85304869    -0.74700
O2596       O  0.12666198  0.36500919  0.87926304    -0.74500
C2597       C  0.12187706  0.36760557  0.98771811     0.77300
C2598       C  0.18128271  0.41554508  0.99093713     0.77800
C2599       C  0.16633285  0.36905510  0.93079506     0.76700
C2600       C  0.17848307  0.41516871  0.85464674     0.77100
C2601       C  0.13546095  0.42118417  0.93565400     0.78200
C2602       C  0.12342636  0.37102938  0.85450184     0.77300
Zn2603     Zn  0.06522787  0.56317053  0.75580329     1.49700
Zn2604     Zn  0.07306640  0.59393653  0.79728285     1.49400
Zn2605     Zn  0.07196292  0.59181120  0.71119473     1.49100
Zn2606     Zn  0.04183959  0.57623921  0.75626109     1.49500
O2607       O  0.06353041  0.58164667  0.75522599    -1.84000
O2608       O  0.07859333  0.56381922  0.79352596    -0.74600
O2609       O  0.08714438  0.61657133  0.77945742    -0.74400
O2610       O  0.08105202  0.58092793  0.68283450    -0.73900
O2611       O  0.08464097  0.58464578  0.82523095    -0.74600
O2612       O  0.07308968  0.55925403  0.71210991    -0.74200
O2613       O  0.08722067  0.61455847  0.72213063    -0.74800
O2614       O  0.03399843  0.57971823  0.71276619    -0.74200
O2615       O  0.05541905  0.59184569  0.83031377    -0.75000
O2616       O  0.05453957  0.58951133  0.67888744    -0.74300
O2617       O  0.03603123  0.58555570  0.79398936    -0.74800
O2618       O  0.02865720  0.55380696  0.76446464    -0.74700
O2619       O  0.04470468  0.54452871  0.76469072    -0.74500
C2620       C  0.08496686  0.57210563  0.81992050     0.77300
C2621       C  0.09151599  0.62273511  0.74968195     0.77800
C2622       C  0.07908873  0.56730696  0.68552815     0.76700
C2623       C  0.04006973  0.58422698  0.68362187     0.77100
C2624       C  0.04143455  0.58860878  0.82423192     0.78200
C2625       C  0.03114986  0.54260695  0.76742929     0.77300
Zn2626     Zn  0.16147930  0.74374936  0.67254950     1.49700
Zn2627     Zn  0.15569439  0.77015937  0.68384618     1.49400
Zn2628     Zn  0.14595969  0.75426017  0.61303309     1.49100
Zn2629     Zn  0.12586744  0.73693085  0.67654474     1.49500
O2630       O  0.14693805  0.75064244  0.66140890    -1.84000
O2631       O  0.17661312  0.75702670  0.71175169    -0.74600
O2632       O  0.15284242  0.78515742  0.65697438    -0.74400
O2633       O  0.16456221  0.75536386  0.59074638    -0.73900
O2634       O  0.17804997  0.77903509  0.69639091    -0.74600
O2635       O  0.17580221  0.74862056  0.63148264    -0.74200
O2636       O  0.14646678  0.77467819  0.60503242    -0.74800
O2637       O  0.11124587  0.73603234  0.63756717    -0.74200
O2638       O  0.14425059  0.76781690  0.72616729    -0.75000
O2639       O  0.12549343  0.73855930  0.59187908    -0.74300
O2640       O  0.12156104  0.74601797  0.71962706    -0.74800
O2641       O  0.12414549  0.71596830  0.68789587    -0.74700
O2642       O  0.14854200  0.72048114  0.68377953    -0.74500
C2643       C  0.18347988  0.77185234  0.71284365     0.77300
C2644       C  0.14903787  0.78545725  0.62616650     0.77800
C2645       C  0.17566332  0.75357035  0.60148542     0.76700
C2646       C  0.11292513  0.73655953  0.60502585     0.77100
C2647       C  0.13061162  0.75838482  0.73641580     0.78200
C2648       C  0.13403533  0.71134013  0.68953471     0.77300
Zn2649     Zn  0.60553120  0.76239217  0.91283519     1.49700
Zn2650     Zn  0.59863716  0.73412126  0.95886087     1.49400
Zn2651     Zn  0.59999030  0.73146385  0.87408245     1.49100
Zn2652     Zn  0.63053179  0.75204132  0.91784375     1.49500
O2653       O  0.60832958  0.74458906  0.91565920    -1.84000
O2654       O  0.59655239  0.76607734  0.95488195    -0.74600
O2655       O  0.58397523  0.71117162  0.94845349    -0.74400
O2656       O  0.58863280  0.74001438  0.84323980    -0.73900
O2657       O  0.58837736  0.74461779  0.98494282    -0.74600
O2658       O  0.59209825  0.76031863  0.87407745    -0.74200
O2659       O  0.58596901  0.70881093  0.89187561    -0.74800
O2660       O  0.63780258  0.74335596  0.88168668    -0.74200
O2661       O  0.61530846  0.73626011  0.99269965    -0.75000
O2662       O  0.61827160  0.73293323  0.84448146    -0.74300
O2663       O  0.63714577  0.74842514  0.96296848    -0.74800
O2664       O  0.64309983  0.77478549  0.90921451    -0.74700
O2665       O  0.62540441  0.78179263  0.90348149    -0.74500
C2666       C  0.58986636  0.75800668  0.98105099     0.77300
C2667       C  0.58084447  0.70278322  0.92143322     0.77800
C2668       C  0.58693370  0.75184393  0.84750173     0.76700
C2669       C  0.63251199  0.73773389  0.85223139     0.77100
C2670       C  0.63003702  0.74250708  0.99063327     0.78200
C2671       C  0.63945942  0.78502077  0.90301281     0.77300
Zn2672     Zn  0.51288562  0.58131126  0.99588114     1.49700
Zn2673     Zn  0.52528046  0.56811437  0.93876163     1.49400
Zn2674     Zn  0.54899982  0.58947317  0.99301204     1.49100
Zn2675     Zn  0.51885733  0.55478365  0.50629579     1.49500
O2676       O  0.52309710  0.57172780  0.47748081    -1.84000
O2677       O  0.49494185  0.57148261  0.96042644    -0.74600
O2678       O  0.54438454  0.58212891  0.91176023    -0.74400
O2679       O  0.55023511  0.61044099  0.98711746    -0.73900
O2680       O  0.50544204  0.56497319  0.91800623    -0.74600
O2681       O  0.52561462  0.60527469  0.99127368    -0.74200
O2682       O  0.56109199  0.58690913  0.95414062    -0.74800
O2683       O  0.53638789  0.56011673  0.53901455    -0.74200
O2684       O  0.52412302  0.54766162  0.93500740    -0.75000
O2685       O  0.55349783  0.58506907  0.53207734    -0.74300
O2686       O  0.51746661  0.53756633  0.47861659    -0.74800
O2687       O  0.49919797  0.54810653  0.53228182    -0.74700
O2688       O  0.49692303  0.56923648  0.53089000    -0.74500
C2689       C  0.49407062  0.56569747  0.93069959     0.77300
C2690       C  0.55773300  0.58508205  0.92228325     0.77800
C2691       C  0.54013845  0.61480814  0.98628380     0.76700
C2692       C  0.54917309  0.57218150  0.54705281     0.77100
C2693       C  0.51754865  0.53511701  0.44675707     0.78200
C2694       C  0.49280510  0.55572003  0.54233796     0.77300
Zn2695     Zn  0.54797413  0.94340031  0.74526243     1.49700
Zn2696     Zn  0.52277330  0.94223652  0.79499290     1.49400
Zn2697     Zn  0.51786283  0.94186564  0.71494791     1.49100
Zn2698     Zn  0.51271568  0.91108219  0.74972273     1.49500
O2699       O  0.52540348  0.93425568  0.75131000    -1.84000
O2700       O  0.56074081  0.95836598  0.78475251    -0.74600
O2701       O  0.51454608  0.95655190  0.78841629    -0.74400
O2702       O  0.53409988  0.95449349  0.68125747    -0.73900
O2703       O  0.54241267  0.95484153  0.82177066    -0.74600
O2704       O  0.55599208  0.95721701  0.70269856    -0.74200
O2705       O  0.51021143  0.95512748  0.73258562    -0.74800
O2706       O  0.49594927  0.90315727  0.71067334    -0.74200
O2707       O  0.50652251  0.92542890  0.82272522    -0.75000
O2708       O  0.49958956  0.92549029  0.69077484    -0.74300
O2709       O  0.49868548  0.90349098  0.79328800    -0.74800
O2710       O  0.52837173  0.90289081  0.74256059    -0.74700
O2711       O  0.55136672  0.92498851  0.74038248    -0.74500
C2712       C  0.55661369  0.96148656  0.81318389     0.77300
C2713       C  0.50958658  0.96007242  0.76204478     0.77800
C2714       C  0.54872464  0.96029802  0.68005410     0.76700
C2715       C  0.49194890  0.91083667  0.69123973     0.77100
C2716       C  0.49737593  0.91097220  0.81860746     0.78200
C2717       C  0.54325860  0.91013119  0.73911348     0.77300
Zn2718     Zn  0.58741823  0.83210706  0.67275184     1.49700
Zn2719     Zn  0.62045300  0.84009912  0.64497150     1.49400
Zn2720     Zn  0.61651151  0.86722092  0.67045055     1.49100
Zn2721     Zn  0.61496164  0.84327838  0.72455441     1.49500
O2722       O  0.60972215  0.84564492  0.67757284    -1.84000
O2723       O  0.58188803  0.82006224  0.62735541    -0.74600
O2724       O  0.63705268  0.85910016  0.62071079    -0.74400
O2725       O  0.59761510  0.86976037  0.67809934    -0.73900
O2726       O  0.60527293  0.82462405  0.61121497    -0.74600
O2727       O  0.57721061  0.84560044  0.67974375    -0.74200
O2728       O  0.62778135  0.87519942  0.62482982    -0.74800
O2729       O  0.62946826  0.86379185  0.74738734    -0.74200
O2730       O  0.63009784  0.82937707  0.66854667    -0.75000
O2731       O  0.63370763  0.88002793  0.70465066    -0.74300
O2732       O  0.62707158  0.83233245  0.72386571    -0.74800
O2733       O  0.59621507  0.82870281  0.75238812    -0.74700
O2734       O  0.58090864  0.81517147  0.70886837    -0.74500
C2735       C  0.59057039  0.81758803  0.60745487     0.77300
C2736       C  0.63752507  0.87168602  0.61268534     0.77800
C2737       C  0.58301717  0.86035395  0.68195404     0.76700
C2738       C  0.63724820  0.87714028  0.73392793     0.77100
C2739       C  0.63188694  0.82725077  0.69987182     0.78200
C2740       C  0.58532673  0.81602489  0.73985665     0.77300
Zn2741     Zn  0.40916699  0.92401015  0.54350321     1.49700
Zn2742     Zn  0.43942439  0.92943988  0.50310802     1.49400
Zn2743     Zn  0.41319416  0.92537557  0.95312084     1.49100
Zn2744     Zn  0.42840324  0.95447761  0.50145493     1.49500
O2745       O  0.42229627  0.93206584  0.99910223    -1.84000
O2746       O  0.41814375  0.91282340  0.57336739    -0.74600
O2747       O  0.44038036  0.91561253  0.96297592    -0.74400
O2748       O  0.39043687  0.91067044  0.96202591    -0.73900
O2749       O  0.43981727  0.91874992  0.54537737    -0.74600
O2750       O  0.38652920  0.91011673  0.52513400    -0.74200
O2751       O  0.42362396  0.91524225  0.92514475    -0.74800
O2752       O  0.41932315  0.96076882  0.96549061    -0.74200
O2753       O  0.45891688  0.94969254  0.50116083    -0.75000
O2754       O  0.41538618  0.94384007  0.92442406    -0.74300
O2755       O  0.45081129  0.96653195  0.49418076    -0.74800
O2756       O  0.42510125  0.96245174  0.54438297    -0.74700
O2757       O  0.41100338  0.94173397  0.57594834    -0.74500
C2758       C  0.43096545  0.91275712  0.57093302     0.77300
C2759       C  0.43438410  0.91236748  0.93322994     0.77800
C2760       C  0.38176132  0.90540297  0.98839873     0.76700
C2761       C  0.41716365  0.95689488  0.93412830     0.77100
C2762       C  0.46158589  0.96333364  0.49561704     0.78200
C2763       C  0.41824080  0.95647028  0.57208451     0.77300
Zn2764     Zn  0.26268507  0.85577768  0.97441699     1.49700
Zn2765     Zn  0.23254633  0.83372568  0.93431069     1.49400
Zn2766     Zn  0.24702859  0.86978161  0.93342581     1.49100
Zn2767     Zn  0.26237033  0.85552679  0.88848142     1.49500
O2768       O  0.25146328  0.85320385  0.93166472    -1.84000
O2769       O  0.25369856  0.83552891  0.00252746    -0.74600
O2770       O  0.21492411  0.83678473  0.94830825    -0.74400
O2771       O  0.26201124  0.88710520  0.96234500    -0.73900
O2772       O  0.23330779  0.82013080  0.97019427    -0.74600
O2773       O  0.26159095  0.87222578  0.00428379    -0.74200
O2774       O  0.22628204  0.86237804  0.95372315    -0.74800
O2775       O  0.25985682  0.87068492  0.85571906    -0.74200
O2776       O  0.22852516  0.82220857  0.89044321    -0.75000
O2777       O  0.24671221  0.87823547  0.88831539    -0.74300
O2778       O  0.25083971  0.83447867  0.86175563    -0.74800
O2779       O  0.28555620  0.86350425  0.90281505    -0.74700
O2780       O  0.28461945  0.86332297  0.96017254    -0.74500
C2781       C  0.24166652  0.82230222  0.99653681     0.77300
C2782       C  0.21451177  0.84890152  0.95680838     0.77800
C2783       C  0.26195977  0.88452280  0.99401116     0.76700
C2784       C  0.25246142  0.87800861  0.85961740     0.77100
C2785       C  0.23687503  0.82312092  0.86498274     0.78200
C2786       C  0.29224605  0.86601368  0.93235792     0.77300
Zn2787     Zn  0.25943730  0.39851817  0.71113351     1.49700
Zn2788     Zn  0.23760927  0.40208943  0.65882692     1.49400
Zn2789     Zn  0.26408990  0.39789432  0.62645606     1.49100
Zn2790     Zn  0.23592216  0.37019885  0.66388613     1.49500
O2791       O  0.24982883  0.39209713  0.66576878    -1.84000
O2792       O  0.25001165  0.40986843  0.73895281    -0.74600
O2793       O  0.24911836  0.41954557  0.62804507    -0.74400
O2794       O  0.28650901  0.41188568  0.64681660    -0.73900
O2795       O  0.23364809  0.41022244  0.70102938    -0.74600
O2796       O  0.28302080  0.41160873  0.70354098    -0.74200
O2797       O  0.25549700  0.40731362  0.59045874    -0.74800
O2798       O  0.24160276  0.35977712  0.62855070    -0.74200
O2799       O  0.21639596  0.38776727  0.63883043    -0.75000
O2800       O  0.26217484  0.37825228  0.60209140    -0.74300
O2801       O  0.21473197  0.36532445  0.65132168    -0.74800
O2802       O  0.23601824  0.36016338  0.70703469    -0.74700
O2803       O  0.25456412  0.37904849  0.73858145    -0.74500
C2804       C  0.23924997  0.41280425  0.73103744     0.77300
C2805       C  0.24906041  0.41531207  0.59751454     0.77800
C2806       C  0.29201834  0.41568727  0.67750137     0.76700
C2807       C  0.25196600  0.36391032  0.60584460     0.77100
C2808       C  0.20873599  0.37305488  0.64001052     0.78200
C2809       C  0.24448597  0.36472568  0.73375042     0.77300
Zn2810     Zn  0.41391612  0.46718032  0.70984778     1.49700
Zn2811     Zn  0.43745286  0.46661501  0.76325486     1.49400
Zn2812     Zn  0.43764704  0.49732796  0.75162513     1.49100
Zn2813     Zn  0.40953316  0.46913140  0.79287551     1.49500
O2814       O  0.42408877  0.47490142  0.75440128    -1.84000
O2815       O  0.41876161  0.45100008  0.69057394    -0.74600
O2816       O  0.45886008  0.48242836  0.77706097    -0.74400
O2817       O  0.43750431  0.50577056  0.70564123    -0.73900
O2818       O  0.43887573  0.45551027  0.72337321    -0.74600
O2819       O  0.42301248  0.48458511  0.67447957    -0.74200
O2820       O  0.46023360  0.50413723  0.75986941    -0.74800
O2821       O  0.41798283  0.48898590  0.82413886    -0.74200
O2822       O  0.42935553  0.45082506  0.79870231    -0.75000
O2823       O  0.43322640  0.50806136  0.78884697    -0.74300
O2824       O  0.40965346  0.45167378  0.82249856    -0.74800
O2825       O  0.38732602  0.46054981  0.77131306    -0.74700
O2826       O  0.39052406  0.45824558  0.71538589    -0.74500
C2827       C  0.43006871  0.44889380  0.69783166     0.77300
C2828       C  0.46662590  0.49691612  0.77195074     0.77800
C2829       C  0.43231815  0.49920162  0.67678596     0.76700
C2830       C  0.42736568  0.50343643  0.81830496     0.77100
C2831       C  0.41857904  0.44591726  0.82049509     0.78200
C2832       C  0.38171275  0.45648530  0.74079884     0.77300
Zn2833     Zn  0.93415719  0.20630176  0.58763613     1.49700
Zn2834     Zn  0.90041849  0.17951451  0.59992824     1.49400
Zn2835     Zn  0.91527473  0.18484722  0.52583860     1.49100
Zn2836     Zn  0.92503154  0.16978994  0.58633386     1.49500
O2837       O  0.91898079  0.18506047  0.57537408    -1.84000
O2838       O  0.92870889  0.21350216  0.63116504    -0.74600
O2839       O  0.88485657  0.17933555  0.56857330    -0.74400
O2840       O  0.92615094  0.20629486  0.50459048    -0.73900
O2841       O  0.90410392  0.19486846  0.63691484    -0.74600
O2842       O  0.93282621  0.22055781  0.55203485    -0.74200
O2843       O  0.89309194  0.17872863  0.51620963    -0.74800
O2844       O  0.91827882  0.15458761  0.54542762    -0.74200
O2845       O  0.89144510  0.15853439  0.62119043    -0.75000
O2846       O  0.91768268  0.16839637  0.50145380    -0.74300
O2847       O  0.91197661  0.15550167  0.62645124    -0.74800
O2848       O  0.94888561  0.18219403  0.59583664    -0.74700
O2849       O  0.95476810  0.20709321  0.59501181    -0.74500
C2850       C  0.91571859  0.20769795  0.64634486     0.77300
C2851       C  0.88297294  0.17839863  0.53633064     0.77800
C2852       C  0.92913322  0.21873271  0.52036962     0.76700
C2853       C  0.91593778  0.15580341  0.51371103     0.77100
C2854       C  0.89774802  0.15112306  0.63280245     0.78200
C2855       C  0.95872533  0.19679380  0.59869527     0.77300
Zn2856     Zn  0.07888516  0.26077814  0.62302243     1.49700
Zn2857     Zn  0.07564256  0.26477388  0.70706977     1.49400
Zn2858     Zn  0.10739598  0.27359059  0.67296513     1.49100
Zn2859     Zn  0.09203470  0.29251143  0.65858529     1.49500
O2860       O  0.08800117  0.27195452  0.66601961    -1.84000
O2861       O  0.05598995  0.24582842  0.63366103    -0.74600
O2862       O  0.08445994  0.25395390  0.73713644    -0.74400
O2863       O  0.11006608  0.25981818  0.64184163    -0.73900
O2864       O  0.05331285  0.25008874  0.68908339    -0.74600
O2865       O  0.09105479  0.25002873  0.60356148    -0.74200
O2866       O  0.10889641  0.26631485  0.71845227    -0.74800
O2867       O  0.11283884  0.30562965  0.63734655    -0.74200
O2868       O  0.07819392  0.28370085  0.73608540    -0.75000
O2869       O  0.12488176  0.29422937  0.66048550    -0.74300
O2870       O  0.09186313  0.30321692  0.70096530    -0.74800
O2871       O  0.07633742  0.29146651  0.62687465    -0.74700
O2872       O  0.08030456  0.27732332  0.58902755    -0.74500
C2873       C  0.04748799  0.24355032  0.66003362     0.77300
C2874       C  0.09859846  0.25708559  0.73912583     0.77800
C2875       C  0.10376410  0.25152781  0.61552121     0.76700
C2876       C  0.12506574  0.30499173  0.64289917     0.77100
C2877       C  0.08572399  0.29829452  0.72993995     0.78200
C2878       C  0.07833191  0.28875336  0.59620775     0.77300
Zn2879     Zn  0.20291750  0.28863529  0.92769383     1.49700
Zn2880     Zn  0.16717879  0.26391644  0.92914632     1.49400
Zn2881     Zn  0.18918408  0.25924229  0.88045348     1.49100
Zn2882     Zn  0.19114180  0.25652202  0.96605647     1.49500
O2883       O  0.18765166  0.26662149  0.92614419    -1.84000
O2884       O  0.19276072  0.30103701  0.93542528    -0.74600
O2885       O  0.15446483  0.25483706  0.88783145    -0.74400
O2886       O  0.20332787  0.27732949  0.84901659    -0.73900
O2887       O  0.16771792  0.28354885  0.93721651    -0.74600
O2888       O  0.21444235  0.29718048  0.88508012    -0.74200
O2889       O  0.16837833  0.24860743  0.85433330    -0.74800
O2890       O  0.19926709  0.24254304  0.94439288    -0.74200
O2891       O  0.15544065  0.25086858  0.96704516    -0.75000
O2892       O  0.19782623  0.24501084  0.88766133    -0.74300
O2893       O  0.17060354  0.24451799  0.99587222    -0.74800
O2894       O  0.20747075  0.27391764  0.99890282    -0.74700
O2895       O  0.21766329  0.29469862  0.96581507    -0.74500
C2896       C  0.17870664  0.29747493  0.93886896     0.77300
C2897       C  0.15603474  0.24910263  0.86021264     0.77800
C2898       C  0.21252931  0.29172878  0.85499861     0.76700
C2899       C  0.20135057  0.23947950  0.91337891     0.77100
C2900       C  0.15760513  0.24413950  0.99193971     0.78200
C2901       C  0.21698786  0.28841514  0.99429541     0.77300
Zn2902     Zn  0.26669170  0.19085993  0.79201079     1.49700
Zn2903     Zn  0.29550932  0.19364145  0.82951343     1.49400
Zn2904     Zn  0.26683261  0.18487716  0.87767969     1.49100
Zn2905     Zn  0.26469111  0.16125759  0.82664852     1.49500
O2906       O  0.27337439  0.18336073  0.83108389    -1.84000
O2907       O  0.28564973  0.20925655  0.76723452    -0.74600
O2908       O  0.30488514  0.20642860  0.87043542    -0.74400
O2909       O  0.25171366  0.19279679  0.87042992    -0.73900
O2910       O  0.30515532  0.20765542  0.79016562    -0.74600
O2911       O  0.25165679  0.19725628  0.81403592    -0.74200
O2912       O  0.28569158  0.20078299  0.90656486    -0.74800
O2913       O  0.24708604  0.14871417  0.85714872    -0.74200
O2914       O  0.30214527  0.17829769  0.83020669    -0.75000
O2915       O  0.25754992  0.16334594  0.90281705    -0.74300
O2916       O  0.28066298  0.15540241  0.83597695    -0.74800
O2917       O  0.25797062  0.15418779  0.78043420    -0.74700
O2918       O  0.25770107  0.17363647  0.75365897    -0.74500
C2919       C  0.30010615  0.21341409  0.76831232     0.77300
C2920       C  0.30015521  0.20815468  0.89925850     0.77800
C2921       C  0.24715507  0.19753256  0.84483315     0.76700
C2922       C  0.24974901  0.14987949  0.88901654     0.77100
C2923       C  0.29534204  0.16377208  0.83492039     0.78200
C2924       C  0.25599375  0.16001929  0.75369385     0.77300
Zn2925     Zn  0.90156915  0.72434278  0.82606952     1.49700
Zn2926     Zn  0.92872394  0.73561007  0.87774827     1.49400
Zn2927     Zn  0.91888938  0.70535155  0.83378754     1.49100
Zn2928     Zn  0.93483159  0.73655352  0.79468437     1.49500
O2929       O  0.92127266  0.72590336  0.83325131    -1.84000
O2930       O  0.89417953  0.73045101  0.86721463    -0.74600
O2931       O  0.92525686  0.71903162  0.91252085    -0.74400
O2932       O  0.89750919  0.68977529  0.81885371    -0.73900
O2933       O  0.91583385  0.74491834  0.89709755    -0.74600
O2934       O  0.88560856  0.70321407  0.81029337    -0.74200
O2935       O  0.92089727  0.69874401  0.88062301    -0.74800
O2936       O  0.93307508  0.71918945  0.76155422    -0.74200
O2937       O  0.95185939  0.75076785  0.87221355    -0.75000
O2938       O  0.93201370  0.70238895  0.79960198    -0.74300
O2939       O  0.95671227  0.75059952  0.81625979    -0.74800
O2940       O  0.92662298  0.74903892  0.76797316    -0.74700
O2941       O  0.90319375  0.73898037  0.79102985    -0.74500
C2942       C  0.90138117  0.73989354  0.89161461     0.77300
C2943       C  0.92214522  0.70501078  0.90975856     0.77800
C2944       C  0.88566980  0.69051818  0.80974085     0.76700
C2945       C  0.93202640  0.70617060  0.76859134     0.77100
C2946       C  0.96139415  0.75506574  0.84717854     0.78200
C2947       C  0.91329218  0.74800181  0.76991759     0.77300
Zn2948     Zn  0.08088308  0.82422610  0.93057863     1.49700
Zn2949     Zn  0.09445560  0.81273331  0.99237478     1.49400
Zn2950     Zn  0.07485872  0.78887747  0.93542688     1.49100
Zn2951     Zn  0.10786439  0.81827299  0.91748296     1.49500
O2952       O  0.08917787  0.81089344  0.94364637    -1.84000
O2953       O  0.08752005  0.84095115  0.96826979    -0.74600
O2954       O  0.08210154  0.79304447  0.01930678    -0.74400
O2955       O  0.05327063  0.78602538  0.92643894    -0.73900
O2956       O  0.09445753  0.83128827  0.01187920    -0.74600
O2957       O  0.05734127  0.81021516  0.92254500    -0.74200
O2958       O  0.07608871  0.77636052  0.97631515    -0.74800
O2959       O  0.10536123  0.80153696  0.88585492    -0.74200
O2960       O  0.11643876  0.81727331  0.99955887    -0.75000
O2961       O  0.08158301  0.78147316  0.89368951    -0.74300
O2962       O  0.12589434  0.82335070  0.94702174    -0.74800
O2963       O  0.11338514  0.83712760  0.88944691    -0.74700
O2964       O  0.09103393  0.83686209  0.88691473    -0.74500
C2965       C  0.09291086  0.84205787  0.99855834     0.77300
C2966       C  0.07883777  0.77970628  0.00815926     0.77800
C2967       C  0.04832518  0.79546497  0.92118278     0.76700
C2968       C  0.09462502  0.78783808  0.87840146     0.77100
C2969       C  0.12760631  0.82190997  0.97867528     0.78200
C2970       C  0.10502877  0.84222809  0.87708222     0.77300
Zn2971     Zn  0.27976153  0.08763948  0.52430641     1.49700
Zn2972     Zn  0.28295370  0.06574831  0.57965533     1.49400
Zn2973     Zn  0.29513307  0.10041948  0.59506210     1.49100
Zn2974     Zn  0.25846821  0.07761717  0.59100645     1.49500
O2975       O  0.27861385  0.08246182  0.57293576    -1.84000
O2976       O  0.29087061  0.07853274  0.49838032    -0.74600
O2977       O  0.29734478  0.06991479  0.61990916    -0.74400
O2978       O  0.30869625  0.11669821  0.56259528    -0.73900
O2979       O  0.29610705  0.06605559  0.53872104    -0.74600
O2980       O  0.29375629  0.11060514  0.51639222    -0.74200
O2981       O  0.30883982  0.09557213  0.62256300    -0.74800
O2982       O  0.26108144  0.09275841  0.63038284    -0.74200
O2983       O  0.26261728  0.04570078  0.59069783    -0.75000
O2984       O  0.28614389  0.11014137  0.62461739    -0.74300
O2985       O  0.24588051  0.05382814  0.60296854    -0.74800
O2986       O  0.24872081  0.08475919  0.55459204    -0.74700
O2987       O  0.25926481  0.08384237  0.50520151    -0.74500
C2988       C  0.29825024  0.07193607  0.50885277     0.77300
C2989       C  0.30798171  0.08294799  0.63131966     0.77800
C2990       C  0.30574330  0.12003873  0.53337582     0.76700
C2991       C  0.27285381  0.10614276  0.63695247     0.77100
C2992       C  0.24927755  0.04298313  0.60103874     0.78200
C2993       C  0.25041266  0.08711226  0.52240833     0.77300
Zn2994     Zn  0.19987952  0.90217363  0.66419807     1.49700
Zn2995     Zn  0.16604702  0.89539903  0.66460404     1.49400
Zn2996     Zn  0.19363143  0.92434347  0.70698175     1.49100
Zn2997     Zn  0.19206881  0.92317401  0.62207524     1.49500
O2998       O  0.18763404  0.91190187  0.66502316    -1.84000
O2999       O  0.18848670  0.88148270  0.64221972    -0.74600
O3000       O  0.15680307  0.89325062  0.71118575    -0.74400
O3001       O  0.21038527  0.92169563  0.73402716    -0.73900
O3002       O  0.16389953  0.87487775  0.64974414    -0.74600
O3003       O  0.20742519  0.90030923  0.70934949    -0.74200
O3004       O  0.17448144  0.91419162  0.73997457    -0.74800
O3005       O  0.19989438  0.94594514  0.63400134    -0.74200
O3006       O  0.15367680  0.89871686  0.62866443    -0.75000
O3007       O  0.20221589  0.94757302  0.69119056    -0.74300
O3008       O  0.17226463  0.91320279  0.59173588    -0.74800
O3009       O  0.20936479  0.92177614  0.59585650    -0.74700
O3010       O  0.21874219  0.91380905  0.63731967    -0.74500
C3011       C  0.17409425  0.87169341  0.63942823     0.77300
C3012       C  0.16137624  0.90140030  0.73852775     0.77800
C3013       C  0.21306977  0.91040260  0.73307820     0.76700
C3014       C  0.20392133  0.95401004  0.66169536     0.77100
C3015       C  0.15791468  0.90401107  0.59861392     0.78200
C3016       C  0.21942458  0.91846854  0.60701893     0.77300
Zn3017     Zn  0.81760154  0.73679207  0.63650167     1.49700
Zn3018     Zn  0.83997281  0.72979853  0.59427594     1.49400
Zn3019     Zn  0.80431531  0.70652296  0.59388214     1.49100
Zn3020     Zn  0.81742371  0.73714119  0.55140249     1.49500
O3021       O  0.82004585  0.72820889  0.59346141    -1.84000
O3022       O  0.83829160  0.74841532  0.66389784    -0.74600
O3023       O  0.83849677  0.70975856  0.60653474    -0.74400
O3024       O  0.78715434  0.70230647  0.62514014    -0.73900
O3025       O  0.85353695  0.74409329  0.63010538    -0.74600
O3026       O  0.80173671  0.71864547  0.66605077    -0.74200
O3027       O  0.81311929  0.69376225  0.61136095    -0.74800
O3028       O  0.80359221  0.71956655  0.51695184    -0.74200
O3029       O  0.85103933  0.73801894  0.55100626    -0.75000
O3030       O  0.79569801  0.69834029  0.54785440    -0.74300
O3031       O  0.83849807  0.74849641  0.52536925    -0.74800
O3032       O  0.80732179  0.75018313  0.56685817    -0.74700
O3033       O  0.80886949  0.75069890  0.62428252    -0.74500
C3034       C  0.85154930  0.74995221  0.65707967     0.77300
C3035       C  0.82702585  0.69662535  0.61431161     0.77800
C3036       C  0.78979769  0.70590052  0.65661004     0.76700
C3037       C  0.79646278  0.70478640  0.51949607     0.77100
C3038       C  0.84991101  0.74597785  0.52714177     0.78200
C3039       C  0.80481049  0.75432464  0.59632987     0.77300
Zn3040     Zn  0.72306290  0.78408334  0.67322692     1.49700
Zn3041     Zn  0.71353531  0.80855569  0.65853352     1.49400
Zn3042     Zn  0.72547317  0.80655973  0.73261637     1.49100
Zn3043     Zn  0.74916184  0.82103333  0.66964970     1.49500
O3044       O  0.72819428  0.80522670  0.68310304    -1.84000
O3045       O  0.70924794  0.77501894  0.63150403    -0.74600
O3046       O  0.69804948  0.80785427  0.69023534    -0.74400
O3047       O  0.71931363  0.78653326  0.75669894    -0.73900
O3048       O  0.70112741  0.79183843  0.62426662    -0.74600
O3049       O  0.70908036  0.77051587  0.71235088    -0.74200
O3050       O  0.70710705  0.80927591  0.74279575    -0.74800
O3051       O  0.75926489  0.83666188  0.70911959    -0.74200
O3052       O  0.72410119  0.82940281  0.63653757    -0.75000
O3053       O  0.74382030  0.82521952  0.75359995    -0.74300
O3054       O  0.74871035  0.83531511  0.63196233    -0.74800
O3055       O  0.76104506  0.80956413  0.65696648    -0.74700
O3056       O  0.74332034  0.78435854  0.66317730    -0.74500
C3057       C  0.70057783  0.77918294  0.61670209     0.77300
C3058       C  0.69683404  0.80856342  0.72237219     0.77800
C3059       C  0.70921805  0.77342618  0.74423850     0.76700
C3060       C  0.75559719  0.83676970  0.74033839     0.77100
C3061       C  0.73789039  0.83839186  0.62619657     0.78200
C3062       C  0.75711942  0.79516219  0.65590713     0.77300
Zn3063     Zn  0.81274722  0.07091783  0.88769190     1.49700
Zn3064     Zn  0.83335636  0.10072032  0.84585017     1.49400
Zn3065     Zn  0.81345340  0.06987769  0.80274994     1.49100
Zn3066     Zn  0.79702572  0.08491774  0.84422872     1.49500
O3067       O  0.81436070  0.08128076  0.84454153    -1.84000
O3068       O  0.83354874  0.08098790  0.91474735    -0.74600
O3069       O  0.84503890  0.10470609  0.80261037    -0.74400
O3070       O  0.80576848  0.04683976  0.81811734    -0.73900
O3071       O  0.84757524  0.10120766  0.88163040    -0.74600
O3072       O  0.80592140  0.04890270  0.87519881    -0.74200
O3073       O  0.83483669  0.08141201  0.77776142    -0.74800
O3074       O  0.78836068  0.08314647  0.79772278    -0.74200
O3075       O  0.82946994  0.11790619  0.85729330    -0.75000
O3076       O  0.79908139  0.07214639  0.76737493    -0.74300
O3077       O  0.80375520  0.10655408  0.85918502    -0.74800
O3078       O  0.78047730  0.07138043  0.87649294    -0.74700
O3079       O  0.79575228  0.07095456  0.91727254    -0.74500
C3080       C  0.84638764  0.09322597  0.90775817     0.77300
C3081       C  0.84522595  0.09585342  0.77934668     0.77800
C3082       C  0.80334914  0.04072471  0.84810786     0.76700
C3083       C  0.79058855  0.07838971  0.76931877     0.77100
C3084       C  0.81716571  0.11845410  0.86251614     0.78200
C3085       C  0.78307790  0.07018024  0.90783595     0.77300
Zn3086     Zn  0.74136878  0.92002951  0.87210627     1.49700
Zn3087     Zn  0.74435501  0.89577443  0.91600501     1.49400
Zn3088     Zn  0.74441037  0.92356591  0.95842526     1.49100
Zn3089     Zn  0.71459176  0.89886943  0.92155439     1.49500
O3090       O  0.73664972  0.91022214  0.91747983    -1.84000
O3091       O  0.75113503  0.91021172  0.84071321    -0.74600
O3092       O  0.75329463  0.89500543  0.96062516    -0.74400
O3093       O  0.75804152  0.94607787  0.93860901    -0.73900
O3094       O  0.75982007  0.90028431  0.87953965    -0.74600
O3095       O  0.75615698  0.94290567  0.88147749    -0.74200
O3096       O  0.75530466  0.91505994  0.99037013    -0.74800
O3097       O  0.70629729  0.90007217  0.96645535    -0.74200
O3098       O  0.72710877  0.87404322  0.90531683    -0.75000
O3099       O  0.72610465  0.92091212  0.99016982    -0.74300
O3100       O  0.70667862  0.87711788  0.91003986    -0.74800
O3101       O  0.70452043  0.90567755  0.88906027    -0.74700
O3102       O  0.72156007  0.91768931  0.84795186    -0.74500
C3103       C  0.75842742  0.90311218  0.84851486     0.77300
C3104       C  0.75672709  0.90300326  0.98797078     0.77800
C3105       C  0.76135890  0.95165778  0.90804808     0.76700
C3106       C  0.71184796  0.90997259  0.99050852     0.77100
C3107       C  0.71252821  0.86866207  0.90381778     0.78200
C3108       C  0.70783595  0.91197056  0.85996163     0.77300
Zn3109     Zn  0.48485021  0.05162406  0.80707001     1.49700
Zn3110     Zn  0.45915070  0.04871165  0.75796773     1.49400
Zn3111     Zn  0.49475762  0.07847469  0.75283717     1.49100
Zn3112     Zn  0.48631081  0.04558637  0.72699948     1.49500
O3113       O  0.48128378  0.05629403  0.76055973    -1.84000
O3114       O  0.46610018  0.04364444  0.83756652    -0.74600
O3115       O  0.45678700  0.06768560  0.76451960    -0.74400
O3116       O  0.51276471  0.08720290  0.78790716    -0.73900
O3117       O  0.44834069  0.03333893  0.79638921    -0.74600
O3118       O  0.50414017  0.06902023  0.82789674    -0.74200
O3119       O  0.48087046  0.08815633  0.75860659    -0.74800
O3120       O  0.50550759  0.06031151  0.70131711    -0.74200
O3121       O  0.44909627  0.03586626  0.71427689    -0.75000
O3122       O  0.50654954  0.08300376  0.70708655    -0.74300
O3123       O  0.46845660  0.03290511  0.69502385    -0.74800
O3124       O  0.49017637  0.03042283  0.75003524    -0.74700
O3125       O  0.48912813  0.03418161  0.80582427    -0.74500
C3126       C  0.45253813  0.03355559  0.82728608     0.77300
C3127       C  0.46629205  0.08234009  0.76425471     0.77800
C3128       C  0.51462349  0.08190236  0.81605398     0.76700
C3129       C  0.51156278  0.07459705  0.69394326     0.77100
C3130       C  0.45442069  0.02980013  0.69344423     0.78200
C3131       C  0.49085436  0.02699365  0.78094801     0.77300
Zn3132     Zn  0.39854155  0.16112761  0.83752683     1.49700
Zn3133     Zn  0.40574705  0.13782019  0.87677497     1.49400
Zn3134     Zn  0.37499354  0.12541885  0.83185793     1.49100
Zn3135     Zn  0.40708647  0.14165723  0.79164719     1.49500
O3136       O  0.39688415  0.14128174  0.83472002    -1.84000
O3137       O  0.41215945  0.17356001  0.87417355    -0.74600
O3138       O  0.38767866  0.12108078  0.90684799    -0.74400
O3139       O  0.36140781  0.13467317  0.83720057    -0.73900
O3140       O  0.41741257  0.15854205  0.90636510    -0.74600
O3141       O  0.37864136  0.15928692  0.84801987    -0.74200
O3142       O  0.36807062  0.11033170  0.86976094    -0.74800
O3143       O  0.39122561  0.12647116  0.75756067    -0.74200
O3144       O  0.41994429  0.12955154  0.85885542    -0.75000
O3145       O  0.36946451  0.11420845  0.78750301    -0.74300
O3146       O  0.42186230  0.13402206  0.80240332    -0.74800
O3147       O  0.41695847  0.16272812  0.76649974    -0.74700
O3148       O  0.40646051  0.17397055  0.79631816    -0.74500
C3149       C  0.41845655  0.17167123  0.90035840     0.77300
C3150       C  0.37353539  0.11097728  0.89949918     0.77800
C3151       C  0.36472439  0.14830381  0.84565292     0.76700
C3152       C  0.37683827  0.11637437  0.75974356     0.77100
C3153       C  0.42509488  0.12883153  0.82912944     0.78200
C3154       C  0.41419731  0.17381895  0.77084949     0.77300
Zn3155     Zn  0.51006388  0.42718889  0.49036300     1.49700
Zn3156     Zn  0.47847551  0.42738152  0.48833302     1.49400
Zn3157     Zn  0.48085342  0.40056965  0.94691942     1.49100
Zn3158     Zn  0.48192734  0.40463237  0.53611553     1.49500
O3159       O  0.48739954  0.41438283  0.49165401    -1.84000
O3160       O  0.51667462  0.44869520  0.47416292    -0.74600
O3161       O  0.46330282  0.42108330  0.94397977    -0.74400
O3162       O  0.49962093  0.40989308  0.91250766    -0.73900
O3163       O  0.49426922  0.44844499  0.47573052    -0.74600
O3164       O  0.51880399  0.41834775  0.95028134    -0.74200
O3165       O  0.46197469  0.39999867  0.92164696    -0.74800
O3166       O  0.47391204  0.38194298  0.52885395    -0.74200
O3167       O  0.46713510  0.42723264  0.52947300    -0.75000
O3168       O  0.47348838  0.37886140  0.96940057    -0.74300
O3169       O  0.46501970  0.40722065  0.55850875    -0.74800
O3170       O  0.50034654  0.41485174  0.56937693    -0.74700
O3171       O  0.52022035  0.43015965  0.53630619    -0.74500
C3172       C  0.50873106  0.45527689  0.46976355     0.77300
C3173       C  0.45686319  0.40944751  0.92405161     0.77800
C3174       C  0.51422885  0.41714334  0.91945363     0.76700
C3175       C  0.47040280  0.37291278  0.50292518     0.77100
C3176       C  0.46138069  0.41760262  0.55367404     0.78200
C3177       C  0.51467905  0.42500347  0.56570454     0.77300
Zn3178     Zn  0.40391479  0.25807715  0.61878658     1.49700
Zn3179     Zn  0.40486755  0.25269418  0.53460736     1.49400
Zn3180     Zn  0.39333419  0.22541417  0.58596789     1.49100
Zn3181     Zn  0.37400291  0.24135133  0.57273831     1.49500
O3182       O  0.39473302  0.24482571  0.57862843    -1.84000
O3183       O  0.41888485  0.27991028  0.59876916    -0.74600
O3184       O  0.41562156  0.24057877  0.51623207    -0.74400
O3185       O  0.40038251  0.22405199  0.63214651    -0.73900
O3186       O  0.41976795  0.27567685  0.54258717    -0.74600
O3187       O  0.41435467  0.24870955  0.64943750    -0.74200
O3188       O  0.40734522  0.22244414  0.55584188    -0.74800
O3189       O  0.35945502  0.21945865  0.55763106    -0.74200
O3190       O  0.38795015  0.25017745  0.50018066    -0.75000
O3191       O  0.37250523  0.20783154  0.57309318    -0.74300
O3192       O  0.37327137  0.25441582  0.53586043    -0.74800
O3193       O  0.36556677  0.24489900  0.61550362    -0.74700
O3194       O  0.38632993  0.25751734  0.64902576    -0.74500
C3195       C  0.42377325  0.28489706  0.56840061     0.77300
C3196       C  0.41497396  0.22844144  0.52885398     0.77800
C3197       C  0.41024627  0.23434217  0.65240034     0.76700
C3198       C  0.36057899  0.20737478  0.56000149     0.77100
C3199       C  0.37633121  0.25203963  0.50571332     0.78200
C3200       C  0.37164038  0.25125960  0.64401428     0.77300
Zn3201     Zn  0.57078988  0.51192774  0.72878309     1.49700
Zn3202     Zn  0.60315392  0.54056331  0.74612366     1.49400
Zn3203     Zn  0.58298069  0.51878340  0.80470068     1.49100
Zn3204     Zn  0.59621764  0.50491965  0.75151495     1.49500
O3205       O  0.58850672  0.51913927  0.75700456    -1.84000
O3206       O  0.57487731  0.52666221  0.69127227    -0.74600
O3207       O  0.60104075  0.55379236  0.78306048    -0.74400
O3208       O  0.56187430  0.51664670  0.80801894    -0.73900
O3209       O  0.59821928  0.54739334  0.69933103    -0.74600
O3210       O  0.55305601  0.51064821  0.75455048    -0.74200
O3211       O  0.59733254  0.53898733  0.82829181    -0.74800
O3212       O  0.58554530  0.48784284  0.78788194    -0.74200
O3213       O  0.62443536  0.54250736  0.75186126    -0.75000
O3214       O  0.58034855  0.49996555  0.82909646    -0.74300
O3215       O  0.62010961  0.51830718  0.75795625    -0.74800
O3216       O  0.58835058  0.49271931  0.70604814    -0.74700
O3217       O  0.56549811  0.49168738  0.70730879    -0.74500
C3218       C  0.58558900  0.53995801  0.68197701     0.77300
C3219       C  0.59969646  0.55166879  0.81532143     0.77800
C3220       C  0.55133419  0.51320283  0.78563875     0.76700
C3221       C  0.58000919  0.48789377  0.81728438     0.77100
C3222       C  0.62933671  0.53308250  0.75808996     0.78200
C3223       C  0.57413479  0.48657333  0.69647388     0.77300
Zn3224     Zn  0.77687581  0.61510745  0.85582485     1.49700
Zn3225     Zn  0.76476155  0.60939932  0.77794875     1.49400
Zn3226     Zn  0.74886495  0.58360035  0.83319332     1.49100
Zn3227     Zn  0.74679107  0.61522167  0.83394538     1.49500
O3228       O  0.75923736  0.60576940  0.82618553    -1.84000
O3229       O  0.79594042  0.62662023  0.82828472    -0.74600
O3230       O  0.76318423  0.59085735  0.75370402    -0.74400
O3231       O  0.75494697  0.57856166  0.88048838    -0.73900
O3232       O  0.78734269  0.62495117  0.77486832    -0.74600
O3233       O  0.77862160  0.59939449  0.88366619    -0.74200
O3234       O  0.75840049  0.57539288  0.79820612    -0.74800
O3235       O  0.72468659  0.59760563  0.82939903    -0.74200
O3236       O  0.75436132  0.61910228  0.75228369    -0.75000
O3237       O  0.72537209  0.57556461  0.82495229    -0.74300
O3238       O  0.75066606  0.63080318  0.79654553    -0.74800
O3239       O  0.75234080  0.62765360  0.87878679    -0.74700
O3240       O  0.77523406  0.62960277  0.88938058    -0.74500
C3241       C  0.79830457  0.62999052  0.79672802     0.77300
C3242       C  0.76341598  0.57952203  0.76779877     0.77800
C3243       C  0.76857778  0.58597220  0.89388441     0.76700
C3244       C  0.71786819  0.58293135  0.82419921     0.77100
C3245       C  0.75244895  0.62985733  0.76454642     0.78200
C3246       C  0.76487761  0.63309468  0.89630491     0.77300
Zn3247     Zn  0.84404545  0.58100827  0.58505996     1.49700
Zn3248     Zn  0.84844624  0.61364460  0.56717010     1.49400
Zn3249     Zn  0.85334029  0.60718034  0.64463957     1.49100
Zn3250     Zn  0.87801769  0.61200576  0.58948331     1.49500
O3251       O  0.85599656  0.60325262  0.59629743    -1.84000
O3252       O  0.83118464  0.57651891  0.54034235    -0.74600
O3253       O  0.83871681  0.62319339  0.59403099    -0.74400
O3254       O  0.83741956  0.58755054  0.66739282    -0.73900
O3255       O  0.83174397  0.59893615  0.53526692    -0.74600
O3256       O  0.82677845  0.57239884  0.62147113    -0.74200
O3257       O  0.84375329  0.62074206  0.64823128    -0.74800
O3258       O  0.89052034  0.62732945  0.62825856    -0.74200
O3259       O  0.86594617  0.63056560  0.54041102    -0.75000
O3260       O  0.87363570  0.61964090  0.67091472    -0.74300
O3261       O  0.88497286  0.62528699  0.54751752    -0.74800
O3262       O  0.88237784  0.59430036  0.58351178    -0.74700
O3263       O  0.85940574  0.57233379  0.58061409    -0.74500
C3264       C  0.82632041  0.58486112  0.52647566     0.77300
C3265       C  0.83807399  0.62559693  0.62566900     0.77800
C3266       C  0.82572976  0.57657057  0.65193144     0.76700
C3267       C  0.88717193  0.62863597  0.65911311     0.77100
C3268       C  0.87949841  0.63304282  0.53362763     0.78200
C3269       C  0.87436217  0.57954654  0.57964299     0.77300
Zn3270     Zn  0.91703710  0.50132282  0.49999662     1.49700
Zn3271     Zn  0.94271687  0.51403234  0.94144779     1.49400
Zn3272     Zn  0.94758282  0.53636334  0.50369042     1.49100
Zn3273     Zn  0.95020747  0.50652406  0.51604438     1.49500
O3274       O  0.93923996  0.51455820  0.49066930    -1.84000
O3275       O  0.90856211  0.48701733  0.96215405    -0.74600
O3276       O  0.95664208  0.53499945  0.92093014    -0.74400
O3277       O  0.92898985  0.53912144  0.51648894    -0.73900
O3278       O  0.92205253  0.50145579  0.91804864    -0.74600
O3279       O  0.90781456  0.51569273  0.50917307    -0.74200
O3280       O  0.96292898  0.55107196  0.96541801    -0.74800
O3281       O  0.96859130  0.52364276  0.54078708    -0.74200
O3282       O  0.95418990  0.50272124  0.92989183    -0.75000
O3283       O  0.96368621  0.54301904  0.54262687    -0.74300
O3284       O  0.95788442  0.49630710  0.48503550    -0.74800
O3285       O  0.93667888  0.49019144  0.54934224    -0.74700
O3286       O  0.91329161  0.48743663  0.54199510    -0.74500
C3287       C  0.91162991  0.48856281  0.93021302     0.77300
C3288       C  0.96498597  0.54835255  0.93445959     0.77800
C3289       C  0.91415863  0.53019087  0.51688735     0.76700
C3290       C  0.97209567  0.53719369  0.55078852     0.77100
C3291       C  0.95912291  0.49538642  0.45292917     0.78200
C3292       C  0.92239781  0.48380059  0.55703370     0.77300
Zn3293     Zn  0.82702419  0.22931022  0.83118627     1.49700
Zn3294     Zn  0.85860632  0.22943865  0.83147909     1.49400
Zn3295     Zn  0.85519887  0.25311458  0.78663992     1.49100
Zn3296     Zn  0.85614443  0.25531720  0.87259569     1.49500
O3297       O  0.84963007  0.24234076  0.83050578    -1.84000
O3298       O  0.82014369  0.20711217  0.84199183    -0.74600
O3299       O  0.87051151  0.23101833  0.78986972    -0.74400
O3300       O  0.83640713  0.24442598  0.75359434    -0.73900
O3301       O  0.84274026  0.20781716  0.83991291    -0.74600
O3302       O  0.81710021  0.22840772  0.78699654    -0.74200
O3303       O  0.87211034  0.25089475  0.76153093    -0.74800
O3304       O  0.86388986  0.27787346  0.85524410    -0.74200
O3305       O  0.87390061  0.23534185  0.86862756    -0.75000
O3306       O  0.86332795  0.27548759  0.79808429    -0.74300
O3307       O  0.87404543  0.25407137  0.89944125    -0.74800
O3308       O  0.83667462  0.24568058  0.90478136    -0.74700
O3309       O  0.81753282  0.23594304  0.86660340    -0.74500
C3310       C  0.82815960  0.20052024  0.84451847     0.77300
C3311       C  0.87602370  0.24063862  0.76553348     0.77800
C3312       C  0.82207708  0.23437062  0.75793676     0.76700
C3313       C  0.86631585  0.28380999  0.82510590     0.77100
C3314       C  0.87928294  0.24491143  0.89335235     0.78200
C3315       C  0.82210371  0.23824116  0.89750382     0.77300
Zn3316     Zn  0.92867468  0.40110892  0.71995225     1.49700
Zn3317     Zn  0.92917444  0.40386789  0.80581496     1.49400
Zn3318     Zn  0.95941284  0.41980722  0.76290164     1.49100
Zn3319     Zn  0.93565220  0.43199200  0.75990464     1.49500
O3320       O  0.93768576  0.41381297  0.76167787    -1.84000
O3321       O  0.91389437  0.37868294  0.73759299    -0.74600
O3322       O  0.94642959  0.40493051  0.83708126    -0.74400
O3323       O  0.96735465  0.41684629  0.71881137    -0.73900
O3324       O  0.91426731  0.38137872  0.79465535    -0.74600
O3325       O  0.94613482  0.40247856  0.68785270    -0.74200
O3326       O  0.96445597  0.40922521  0.79874574    -0.74800
O3327       O  0.95620113  0.45106815  0.76714890    -0.74200
O3328       O  0.91844518  0.41398247  0.83217494    -0.75000
O3329       O  0.97241308  0.44216495  0.77376997    -0.74300
O3330       O  0.92214808  0.43266039  0.79643493    -0.74800
O3331       O  0.92693281  0.43340153  0.71547024    -0.74700
O3332       O  0.91831008  0.41059915  0.68954551    -0.74500
C3333       C  0.90963066  0.37289369  0.76767612     0.77300
C3334       C  0.95951096  0.40631982  0.82920399     0.77800
C3335       C  0.96096545  0.40987577  0.69106125     0.76700
C3336       C  0.96970461  0.45328875  0.77342955     0.77100
C3337       C  0.91681550  0.42550682  0.82432948     0.78200
C3338       C  0.92008086  0.42424915  0.69045472     0.77300
Zn3339     Zn  0.56921956  0.06624555  0.98901267     1.49700
Zn3340     Zn  0.57582874  0.03818224  0.98866478     1.49400
Zn3341     Zn  0.59896557  0.06915928  0.95081021     1.49100
Zn3342     Zn  0.59584413  0.06734775  0.54157750     1.49500
O3343       O  0.58580074  0.06234310  0.49620716    -1.84000
O3344       O  0.54876560  0.04815118  0.97659022    -0.74600
O3345       O  0.58375488  0.03084033  0.95157184    -0.74400
O3346       O  0.59071481  0.08058745  0.91956427    -0.73900
O3347       O  0.55382707  0.02897051  0.97787396    -0.74600
O3348       O  0.57274680  0.08105030  0.95227391    -0.74200
O3349       O  0.59818396  0.05144664  0.91984493    -0.74800
O3350       O  0.61853942  0.08146668  0.53217446    -0.74200
O3351       O  0.57721837  0.02962703  0.53288201    -0.75000
O3352       O  0.62127866  0.08318506  0.97121036    -0.74300
O3353       O  0.59324499  0.04827142  0.56801646    -0.74800
O3354       O  0.58634591  0.07690154  0.57355617    -0.74700
O3355       O  0.56948550  0.07895093  0.54007624    -0.74500
C3356       C  0.54448351  0.03391575  0.97334965     0.77300
C3357       C  0.59157543  0.03679996  0.92479198     0.77800
C3358       C  0.58019685  0.08421769  0.92440085     0.76700
C3359       C  0.62721755  0.08686087  0.50587634     0.77100
C3360       C  0.58467204  0.03388570  0.56089897     0.78200
C3361       C  0.57567967  0.08030777  0.56926043     0.77300
Zn3362     Zn  0.77357287  0.14759892  0.59887734     1.49700
Zn3363     Zn  0.74807625  0.15400054  0.56846573     1.49400
Zn3364     Zn  0.76487996  0.14248568  0.51943871     1.49100
Zn3365     Zn  0.74218011  0.11925009  0.57648347     1.49500
O3366       O  0.75708549  0.14073204  0.56601169    -1.84000
O3367       O  0.77400179  0.16395697  0.62922203    -0.74600
O3368       O  0.75751009  0.17019375  0.53123884    -0.74400
O3369       O  0.78822996  0.15229614  0.52001082    -0.73900
O3370       O  0.75424119  0.16686555  0.61238373    -0.74600
O3371       O  0.79366755  0.15788488  0.57519785    -0.74200
O3372       O  0.76183752  0.15741023  0.49019097    -0.74800
O3373       O  0.74343328  0.10524919  0.54015403    -0.74200
O3374       O  0.72466559  0.14026229  0.56256421    -0.75000
O3375       O  0.75620431  0.12150256  0.49769522    -0.74300
O3376       O  0.72063305  0.11660823  0.57472379    -0.74800
O3377       O  0.74709306  0.11217901  0.62156403    -0.74700
O3378       O  0.77211466  0.12996184  0.62699261    -0.74500
C3379       C  0.76589337  0.17048001  0.63184075     0.77300
C3380       C  0.76192639  0.16950084  0.50109792     0.77800
C3381       C  0.79794922  0.15868934  0.54437315     0.76700
C3382       C  0.74899631  0.10788444  0.51002121     0.77100
C3383       C  0.71559516  0.12571434  0.56689510     0.78200
C3384       C  0.76041765  0.11703403  0.63534188     0.77300
C3385       C  0.64430616  0.09595569  0.51168774    -0.05100
C3386       C  0.65466124  0.10370452  0.48483937    -0.05000
C3387       C  0.67075712  0.11171567  0.49065523    -0.23200
C3388       C  0.67679050  0.11192163  0.52331018     0.19000
C3389       C  0.66648753  0.10398889  0.55034620     0.16200
C3390       C  0.65040233  0.09625921  0.54447370    -0.18200
C3391       C  0.67242912  0.10362736  0.58272020    -0.20000
C3392       C  0.68846391  0.11088930  0.58816438    -0.12600
C3393       C  0.69877937  0.11899478  0.56166315     0.04100
C3394       C  0.69292185  0.11962515  0.52931678    -0.24700
H3395       H  0.65032604  0.10355875  0.45931964     0.09100
H3396       H  0.67848401  0.11759860  0.46953981     0.12800
H3397       H  0.64145810  0.08401372  0.05766217     0.12700
H3398       H  0.66300125  0.08924613  0.09559890     0.12400
H3399       H  0.69284637  0.11018847  0.61309248     0.13000
H3400       H  0.70091322  0.12562520  0.50864277     0.14900
C3401       C  0.76652821  0.18300101  0.98338158    -0.05100
C3402       C  0.76218452  0.18191521  0.94884588    -0.05000
C3403       C  0.77109200  0.19399520  0.92627847    -0.23200
C3404       C  0.78490367  0.20710023  0.93756024     0.19000
C3405       C  0.78913772  0.20860734  0.97244815     0.16200
C3406       C  0.77965241  0.19672930  0.99538443    -0.18200
C3407       C  0.80339432  0.22134839  0.98319427    -0.20000
C3408       C  0.81387092  0.23180132  0.95923807    -0.12600
C3409       C  0.81006064  0.23002995  0.92424422     0.04100
C3410       C  0.79513232  0.21803190  0.91399784    -0.24700
H3411       H  0.75223028  0.17142186  0.93903265     0.09100
H3412       H  0.76770413  0.19263945  0.89956900     0.12800
H3413       H  0.78328817  0.19750999  0.02182675     0.12700
H3414       H  0.80685234  0.22269407  0.00984891     0.12400
H3415       H  0.82522814  0.24081775  0.96791033     0.13000
H3416       H  0.79194989  0.21629743  0.88713773     0.14900
C3417       C  0.77131653  0.18344902  0.65615365    -0.05100
C3418       C  0.76463257  0.18141546  0.68853902    -0.05000
C3419       C  0.77222169  0.19270327  0.71407263    -0.23200
C3420       C  0.78670027  0.20595617  0.70752875     0.19000
C3421       C  0.79294871  0.20848321  0.67426837     0.16200
C3422       C  0.78512183  0.19725059  0.64872084    -0.18200
C3423       C  0.80752121  0.22155572  0.66784155    -0.20000
C3424       C  0.81658744  0.23114140  0.69484228    -0.12600
C3425       C  0.81110082  0.22790173  0.72855094     0.04100
C3426       C  0.79566299  0.21592983  0.73426687    -0.24700
H3427       H  0.75406861  0.17074730  0.69460835     0.09100
H3428       H  0.76725676  0.19061551  0.73945141     0.12800
H3429       H  0.79032741  0.19870112  0.62368071     0.12700
H3430       H  0.81236490  0.22374275  0.64233401     0.12400
H3431       H  0.82831846  0.24033908  0.68964050     0.13000
H3432       H  0.79113941  0.21338254  0.76006631     0.14900
C3433       C  0.89969928  0.35577854  0.77221615    -0.05100
C3434       C  0.89563979  0.34556553  0.74415840    -0.05000
C3435       C  0.88782208  0.32949184  0.74901612    -0.23200
C3436       C  0.88393250  0.32327075  0.78205702     0.19000
C3437       C  0.88756286  0.33331572  0.81044528     0.16200
C3438       C  0.89529970  0.34945750  0.80535269    -0.18200
C3439       C  0.88374452  0.32704900  0.84350213    -0.20000
C3440       C  0.87666194  0.31099103  0.84844039    -0.12600
C3441       C  0.87315561  0.30085794  0.82040929     0.04100
C3442       C  0.87674092  0.30718890  0.78717621    -0.24700
H3443       H  0.89886176  0.35000272  0.71845870     0.09100
H3444       H  0.88509055  0.32192641  0.72693161     0.12800
H3445       H  0.89829790  0.35709311  0.82739561     0.12700
H3446       H  0.88644253  0.33459233  0.86561288     0.12400
H3447       H  0.87407193  0.30652838  0.87422858     0.13000
H3448       H  0.87419689  0.29963488  0.76512881     0.14900
C3449       C  0.90521484  0.47472598  0.90755286    -0.05100
C3450       C  0.90360485  0.47627211  0.87234289    -0.05000
C3451       C  0.90283360  0.46519186  0.84911644    -0.23200
C3452       C  0.90423265  0.45265280  0.86063473     0.19000
C3453       C  0.90483419  0.45039327  0.89609143     0.16200
C3454       C  0.90490157  0.46124686  0.91942039    -0.18200
C3455       C  0.90675460  0.43811071  0.90741895    -0.20000
C3456       C  0.90936497  0.42900295  0.88388502    -0.12600
C3457       C  0.90991431  0.43190165  0.84862717     0.04100
C3458       C  0.90644146  0.44321289  0.83722119    -0.24700
H3459       H  0.90398680  0.48659955  0.86261340     0.09100
H3460       H  0.90231412  0.46706090  0.82200930     0.12800
H3461       H  0.90650970  0.46010650  0.94645041     0.12700
H3462       H  0.90720297  0.43616319  0.93450441     0.12400
H3463       H  0.91198677  0.42040483  0.89343723     0.13000
H3464       H  0.90670373  0.44554201  0.81012510     0.14900
C3465       C  0.91523195  0.43051639  0.66146272    -0.05100
C3466       C  0.91458492  0.42523427  0.62777469    -0.05000
C3467       C  0.91398956  0.43378122  0.59997640    -0.23200
C3468       C  0.91406342  0.44776294  0.60544403     0.19000
C3469       C  0.91348986  0.45250872  0.63923238     0.16200
C3470       C  0.91392005  0.44380196  0.66687811    -0.18200
C3471       C  0.91357620  0.46646123  0.64493778    -0.20000
C3472       C  0.91521771  0.47613601  0.61756780    -0.12600
C3473       C  0.91671434  0.47198993  0.58411584     0.04100
C3474       C  0.91570438  0.45757835  0.57801619    -0.24700
H3475       H  0.91559517  0.41509231  0.62283629     0.09100
H3476       H  0.91427235  0.42987327  0.57423380     0.12800
H3477       H  0.91425648  0.44796314  0.69271377     0.12700
H3478       H  0.91312994  0.47024965  0.67070873     0.12400
H3479       H  0.91624419  0.48729116  0.62272957     0.13000
H3480       H  0.91709144  0.45445539  0.55221216     0.14900
C3481       C  0.88310809  0.57115090  0.57274427    -0.05100
C3482       C  0.89925017  0.57893040  0.57915502    -0.05000
C3483       C  0.90829166  0.57240931  0.56987918    -0.23200
C3484       C  0.90152824  0.55786122  0.55374442     0.19000
C3485       C  0.88531424  0.54959794  0.54768197     0.16200
C3486       C  0.87615398  0.55624761  0.55730671    -0.18200
C3487       C  0.87867650  0.53494876  0.53166240    -0.20000
C3488       C  0.88795918  0.52865120  0.52175289    -0.12600
C3489       C  0.90416876  0.53687605  0.52724058     0.04100
C3490       C  0.91079471  0.55154522  0.54343123    -0.24700
H3491       H  0.90505216  0.59032548  0.59101570     0.09100
H3492       H  0.92068323  0.57889686  0.57495419     0.12800
H3493       H  0.86379216  0.55006322  0.55186683     0.12700
H3494       H  0.86628294  0.52834574  0.52671592     0.12400
H3495       H  0.88242965  0.51734553  0.50950060     0.13000
H3496       H  0.92320731  0.55806218  0.54827455     0.14900
C3497       C  0.77337035  0.57978556  0.92276033    -0.05100
C3498       C  0.76901656  0.58121506  0.95607307    -0.05000
C3499       C  0.77769352  0.58117720  0.98435426    -0.23200
C3500       C  0.79091002  0.57975846  0.97970663     0.19000
C3501       C  0.79456107  0.57692324  0.94653539     0.16200
C3502       C  0.78579157  0.57701246  0.91826351    -0.18200
C3503       C  0.80763385  0.57524613  0.94196787    -0.20000
C3504       C  0.81762510  0.57747681  0.96951637    -0.12600
C3505       C  0.81482759  0.58163025  0.00191262     0.04100
C3506       C  0.80049139  0.57972927  0.50628491    -0.24700
H3507       H  0.75973741  0.58371382  0.96003340     0.09100
H3508       H  0.77531156  0.58287766  0.50997202     0.12800
H3509       H  0.78940492  0.57620954  0.89256006     0.12700
H3510       H  0.81052430  0.57290933  0.91677909     0.12400
H3511       H  0.82808072  0.57696672  0.96501275     0.13000
H3512       H  0.79883067  0.58345414  0.53125051     0.14900
C3513       C  0.81019454  0.57093493  0.66728653    -0.05100
C3514       C  0.79873217  0.57150920  0.64725085    -0.05000
C3515       C  0.78610556  0.57164329  0.66255807    -0.23200
C3516       C  0.78447403  0.57082923  0.69823327     0.19000
C3517       C  0.79511314  0.56878139  0.71838261     0.16200
C3518       C  0.80804303  0.56909958  0.70287527    -0.18200
C3519       C  0.79319122  0.56746619  0.75395924    -0.20000
C3520       C  0.78156704  0.56925503  0.76963450    -0.12600
C3521       C  0.77183436  0.57273712  0.75018471     0.04100
C3522       C  0.77303161  0.57300314  0.71425106    -0.24700
H3523       H  0.80027093  0.57327901  0.61989121     0.09100
H3524       H  0.77803205  0.57310811  0.64660508     0.12800
H3525       H  0.81689447  0.56886371  0.71862179     0.12700
H3526       H  0.80111933  0.56574653  0.76983638     0.12400
H3527       H  0.78105877  0.56919228  0.79731766     0.13000
H3528       H  0.76566007  0.57575536  0.69895027     0.14900
C3529       C  0.64602370  0.53976144  0.76801965    -0.05100
C3530       C  0.65326503  0.53075453  0.76856598    -0.05000
C3531       C  0.66872389  0.53714367  0.78004512    -0.23200
C3532       C  0.67716814  0.55258923  0.79184661     0.19000
C3533       C  0.66987282  0.56159967  0.79176495     0.16200
C3534       C  0.65455367  0.55524037  0.77962872    -0.18200
C3535       C  0.67794676  0.57687443  0.80401739    -0.20000
C3536       C  0.69321870  0.58335338  0.81566261    -0.12600
C3537       C  0.70095939  0.57480833  0.81524609     0.04100
C3538       C  0.69273290  0.55925624  0.80352613    -0.24700
H3539       H  0.64697151  0.51876300  0.76014543     0.09100
H3540       H  0.67401978  0.52996411  0.77995436     0.12800
H3541       H  0.64913265  0.56231546  0.78007109     0.12700
H3542       H  0.67248095  0.58390456  0.80434834     0.12400
H3543       H  0.69908015  0.59529870  0.82442210     0.13000
H3544       H  0.69847716  0.55249100  0.80282621     0.14900
C3545       C  0.52479947  0.43212987  0.59624897    -0.05100
C3546       C  0.51798792  0.43124167  0.62819713    -0.05000
C3547       C  0.52688731  0.44066444  0.65544987    -0.23200
C3548       C  0.54279018  0.45114070  0.65132767     0.19000
C3549       C  0.55008721  0.45142476  0.62023066     0.16200
C3550       C  0.54103759  0.44185865  0.59283985    -0.18200
C3551       C  0.56609833  0.46195357  0.61653656    -0.20000
C3552       C  0.57448706  0.47282478  0.64250770    -0.12600
C3553       C  0.56693408  0.47328126  0.67236524     0.04100
C3554       C  0.55125661  0.46197846  0.67710918    -0.24700
H3555       H  0.50556440  0.42395399  0.63158384     0.09100
H3556       H  0.52117696  0.44026925  0.67926816     0.12800
H3557       H  0.54647183  0.44264096  0.56839731     0.12700
H3558       H  0.57194416  0.46225773  0.59300013     0.12400
H3559       H  0.58655732  0.48145054  0.63835443     0.13000
H3560       H  0.54540158  0.46217773  0.70027899     0.14900
C3561       C  0.52618357  0.42638165  0.89303270    -0.05100
C3562       C  0.52233444  0.42586602  0.85820017    -0.15800
C3563       C  0.53305408  0.43676821  0.83513823    -0.23200
C3564       C  0.54767937  0.44870411  0.84662222     0.19000
C3565       C  0.55176300  0.44915374  0.88138142     0.16200
C3566       C  0.54121551  0.43786454  0.90397420    -0.18200
C3567       C  0.56595265  0.46145385  0.89359152    -0.20000
C3568       C  0.57566873  0.47363099  0.87201741    -0.12600
C3569       C  0.57172566  0.47348430  0.83750507     0.04100
C3570       C  0.55788552  0.46072605  0.82463339    -0.24700
H3571       H  0.51085743  0.41736756  0.84899629     0.09100
H3572       H  0.52963805  0.43627135  0.80863046     0.12800
H3573       H  0.54440217  0.43874086  0.93075802     0.12700
H3574       H  0.56917875  0.46205150  0.92027536     0.12400
H3575       H  0.58604511  0.48347858  0.88257815     0.13000
H3576       H  0.55450067  0.46078975  0.79829145     0.14900
C3577       C  0.43384038  0.30190394  0.56225592    -0.05100
C3578       C  0.43773132  0.31268385  0.58915033    -0.05000
C3579       C  0.44616175  0.32865436  0.58293305    -0.23200
C3580       C  0.45084780  0.33423499  0.54963762     0.19000
C3581       C  0.44721652  0.32361310  0.52237624     0.16200
C3582       C  0.43882294  0.30755824  0.52884379    -0.18200
C3583       C  0.45177817  0.32924489  0.48901981    -0.20000
C3584       C  0.45958667  0.34523194  0.48263391    -0.12600
C3585       C  0.46311863  0.35594131  0.50949942     0.04100
C3586       C  0.45882942  0.35025340  0.54310332    -0.24700
H3587       H  0.43403403  0.30878074  0.61501743     0.09100
H3588       H  0.44882287  0.33665332  0.60415557     0.12800
H3589       H  0.43589800  0.29948589  0.50766274     0.12700
H3590       H  0.44943125  0.32189707  0.96846936     0.12400
H3591       H  0.46241720  0.34965887  0.95590004     0.13000
H3592       H  0.46134525  0.35826719  0.56423806     0.14900
C3593       C  0.42570258  0.18521207  0.92412294    -0.05100
C3594       C  0.43142874  0.20007026  0.90991142    -0.05000
C3595       C  0.43217596  0.21227818  0.92911330    -0.23200
C3596       C  0.42747900  0.21002589  0.96326747     0.19000
C3597       C  0.42349970  0.19573164  0.97895123     0.16200
C3598       C  0.42265970  0.18338725  0.95934273    -0.18200
C3599       C  0.41928243  0.19364023  0.01336994    -0.20000
C3600       C  0.42133780  0.20719672  0.52873013    -0.12600
C3601       C  0.42019569  0.21864365  0.01499846     0.04100
C3602       C  0.42571975  0.22137822  0.98125364    -0.24700
H3603       H  0.43394448  0.20185080  0.88282829     0.09100
H3604       H  0.43554533  0.22318031  0.91663864     0.12800
H3605       H  0.41809946  0.17202599  0.97063267     0.12700
H3606       H  0.41643671  0.18293156  0.02615106     0.12400
H3607       H  0.41856738  0.20534810  0.55568216     0.13000
H3608       H  0.42772451  0.23180763  0.96837087     0.14900
C3609       C  0.41907438  0.18647377  0.74557948    -0.05100
C3610       C  0.42113085  0.18401118  0.71110147    -0.05000
C3611       C  0.42217420  0.19448796  0.68614295    -0.23200
C3612       C  0.42108263  0.20753862  0.69527916     0.19000
C3613       C  0.42021206  0.21079886  0.73007544     0.16200
C3614       C  0.41936962  0.20031638  0.75503623    -0.18200
C3615       C  0.41902076  0.22385144  0.73902216    -0.20000
C3616       C  0.41723506  0.23272672  0.71358143    -0.12600
C3617       C  0.41676140  0.22869893  0.67899741     0.04100
C3618       C  0.41958494  0.21664197  0.67007345    -0.24700
H3619       H  0.42092884  0.17349823  0.70315434     0.09100
H3620       H  0.42295189  0.19191937  0.65951428     0.12800
H3621       H  0.41793285  0.20244122  0.78161707     0.12700
H3622       H  0.41849123  0.22660300  0.76563943     0.12400
H3623       H  0.41504407  0.24192080  0.72098774     0.13000
H3624       H  0.41935724  0.21355673  0.64334944     0.14900
C3625       C  0.52496635  0.08121095  0.67045004    -0.05100
C3626       C  0.52468613  0.08817756  0.63961720    -0.05000
C3627       C  0.53600985  0.09142871  0.61464251    -0.23200
C3628       C  0.54781257  0.08784903  0.62035597     0.19000
C3629       C  0.54885451  0.08202655  0.65246255     0.16200
C3630       C  0.53740480  0.07869420  0.67718930    -0.18200
C3631       C  0.56074678  0.07867958  0.65853415    -0.20000
C3632       C  0.57065030  0.07970894  0.63209284    -0.12600
C3633       C  0.56882393  0.08405245  0.59904920     0.04100
C3634       C  0.55787174  0.08891829  0.59387974    -0.24700
H3635       H  0.51520836  0.09021333  0.63401891     0.09100
H3636       H  0.53511792  0.09606212  0.59031146     0.12800
H3637       H  0.53772753  0.07342877  0.70112334     0.12700
H3638       H  0.56183502  0.07442132  0.68319995     0.12400
H3639       H  0.57893586  0.07592753  0.63692256     0.13000
H3640       H  0.55637588  0.09242173  0.56863647     0.14900
C3641       C  0.52953701  0.08994110  0.83488572    -0.05100
C3642       C  0.52991006  0.09554194  0.86801294    -0.05000
C3643       C  0.54215222  0.09869038  0.89039223    -0.23200
C3644       C  0.55391432  0.09567689  0.88040622     0.19000
C3645       C  0.55417978  0.09089098  0.84648491     0.16200
C3646       C  0.54210357  0.08834836  0.82361972    -0.18200
C3647       C  0.56567279  0.08733536  0.83713268    -0.20000
C3648       C  0.57568286  0.08690444  0.86198237    -0.12600
C3649       C  0.57456231  0.09031791  0.89643899     0.04100
C3650       C  0.56438276  0.09580993  0.90477486    -0.24700
H3651       H  0.52021759  0.09655792  0.87726821     0.09100
H3652       H  0.54177645  0.10234463  0.91633501     0.12800
H3653       H  0.54164921  0.08362282  0.79832994     0.12700
H3654       H  0.56613814  0.08373447  0.81119299     0.12400
H3655       H  0.58331432  0.08259325  0.85474277     0.13000
H3656       H  0.56340039  0.09857968  0.93116165     0.14900
C3657       C  0.43415414  0.12077699  0.82440422    -0.05100
C3658       C  0.43391070  0.11056837  0.84935260    -0.05000
C3659       C  0.44030747  0.10112946  0.84265496    -0.23200
C3660       C  0.44720523  0.10178980  0.81095462     0.19000
C3661       C  0.44813166  0.11246286  0.78618159     0.16200
C3662       C  0.44158177  0.12181904  0.79299809    -0.18200
C3663       C  0.45534643  0.11339005  0.75473741    -0.20000
C3664       C  0.46150148  0.10376938  0.74782029    -0.12600
C3665       C  0.46022205  0.09282510  0.77185336     0.04100
C3666       C  0.45305419  0.09187447  0.80343059    -0.24700
H3667       H  0.42820335  0.10940383  0.87359208     0.09100
H3668       H  0.43959562  0.09309810  0.86205559     0.12800
H3669       H  0.44193530  0.12963869  0.77344402     0.12700
H3670       H  0.45619613  0.12152987  0.73546516     0.12400
H3671       H  0.46699174  0.10464608  0.72341164     0.13000
H3672       H  0.45217443  0.08351613  0.82218455     0.14900
C3673       C  0.81864684  0.13341186  0.87128266    -0.05100
C3674       C  0.83199595  0.14459874  0.88865003    -0.05000
C3675       C  0.83512707  0.15978136  0.89133141    -0.23200
C3676       C  0.82517438  0.16401406  0.87572490     0.19000
C3677       C  0.81116005  0.15266168  0.86010120     0.16200
C3678       C  0.80777087  0.13724241  0.85877527    -0.18200
C3679       C  0.80150809  0.15719068  0.84371494    -0.20000
C3680       C  0.80643508  0.17295701  0.84027173    -0.12600
C3681       C  0.82091370  0.18416280  0.85362861     0.04100
C3682       C  0.82973696  0.17960105  0.87299253    -0.24700
H3683       H  0.84033504  0.14171987  0.89892685     0.09100
H3684       H  0.84582116  0.16838876  0.90366358     0.12800
H3685       H  0.79744632  0.12858445  0.84534767     0.12700
H3686       H  0.79067193  0.14863613  0.83181973     0.12400
H3687       H  0.79945919  0.17637979  0.82547927     0.13000
H3688       H  0.84079961  0.18830328  0.88387835     0.14900
C3689       C  0.74359045  0.09348624  0.99021667    -0.05100
C3690       C  0.73890339  0.09132769  0.95582137    -0.05000
C3691       C  0.74314659  0.08304396  0.93382333    -0.23200
C3692       C  0.75282523  0.07758654  0.94568309     0.19000
C3693       C  0.75675580  0.07888545  0.98076775     0.16200
C3694       C  0.75155686  0.08630679  0.00311287    -0.18200
C3695       C  0.76719458  0.07430116  0.99220068    -0.20000
C3696       C  0.77494473  0.07005543  0.96860060    -0.12600
C3697       C  0.77195528  0.06983776  0.93339482     0.04100
C3698       C  0.76000549  0.07249953  0.92246303    -0.24700
H3699       H  0.73281632  0.09687109  0.94556641     0.09100
H3700       H  0.74002418  0.08211885  0.90699102     0.12800
H3701       H  0.76033848  0.08951964  0.52777396     0.12700
H3702       H  0.77029608  0.07519558  0.01904110     0.12400
H3703       H  0.78399358  0.06795701  0.97772884     0.13000
H3704       H  0.75749931  0.07233458  0.89541625     0.14900
C3705       C  0.78434573  0.08183757  0.73807859    -0.05100
C3706       C  0.79261464  0.08529557  0.70725597    -0.05000
C3707       C  0.78916031  0.09232087  0.68034979    -0.23200
C3708       C  0.77725205  0.09587438  0.68362613     0.19000
C3709       C  0.76819014  0.09153736  0.71361161     0.16200
C3710       C  0.77183220  0.08463024  0.74064102    -0.18200
C3711       C  0.75601110  0.09472166  0.71656415    -0.20000
C3712       C  0.75310566  0.10250491  0.69045741    -0.12600
C3713       C  0.76254618  0.10755937  0.66138806     0.04100
C3714       C  0.77452336  0.10406809  0.65791875    -0.24700
H3715       H  0.80242272  0.08349770  0.70474888     0.09100
H3716       H  0.79614436  0.09544266  0.65743251     0.12800
H3717       H  0.76536713  0.08206157  0.76427550     0.12700
H3718       H  0.74889004  0.09140758  0.73928514     0.12400
H3719       H  0.74383573  0.10508624  0.69351952     0.13000
H3720       H  0.78174979  0.10782270  0.63532982     0.14900
C3721       C  0.79693787  0.02366339  0.85288394    -0.05100
C3722       C  0.79379347  0.01343886  0.82515634    -0.05000
C3723       C  0.78692260  0.99737371  0.83049452    -0.23200
C3724       C  0.78294504  0.99116672  0.86365374     0.19000
C3725       C  0.78631874  0.00132776  0.89170496     0.16200
C3726       C  0.79330100  0.01738314  0.88619822    -0.18200
C3727       C  0.78236622  0.99525932  0.92486454    -0.20000
C3728       C  0.77477006  0.97922402  0.93023959    -0.12600
C3729       C  0.77092782  0.96882519  0.90261076     0.04100
C3730       C  0.77533328  0.97500145  0.86925703    -0.24700
H3731       H  0.79645618  0.01782425  0.79931644     0.09100
H3732       H  0.78448220  0.98977116  0.80859336     0.12800
H3733       H  0.79559019  0.02496300  0.90808836     0.12700
H3734       H  0.78490160  0.00292555  0.94669197     0.12400
H3735       H  0.77154755  0.97495061  0.95605220     0.13000
H3736       H  0.77252165  0.96723744  0.84751162     0.14900
C3737       C  0.74109793  0.85283242  0.60823523    -0.05100
C3738       C  0.73069870  0.85839543  0.61227459    -0.05000
C3739       C  0.73288954  0.87153740  0.59495183    -0.23200
C3740       C  0.74538780  0.87931573  0.57256711     0.19000
C3741       C  0.75623148  0.87420154  0.56893966     0.16200
C3742       C  0.75418222  0.86114586  0.58727225    -0.18200
C3743       C  0.76837279  0.88166532  0.54542638    -0.20000
C3744       C  0.76891505  0.89304164  0.52367364    -0.12600
C3745       C  0.75774334  0.89765218  0.52597070     0.04100
C3746       C  0.74649199  0.89130716  0.55178524    -0.24700
H3747       H  0.72069943  0.85248099  0.62878033     0.09100
H3748       H  0.72446718  0.87527675  0.59814266     0.12800
H3749       H  0.76233123  0.85706535  0.58400323     0.12700
H3750       H  0.77680253  0.87794582  0.54215765     0.12400
H3751       H  0.77852561  0.89415128  0.99450639     0.13000
H3752       H  0.73749231  0.89437985  0.55295131     0.14900
C3753       C  0.76377420  0.89615475  0.82172810    -0.05100
C3754       C  0.76206561  0.89804730  0.78667609    -0.05000
C3755       C  0.76327309  0.88833453  0.76224686    -0.23200
C3756       C  0.76567207  0.87621572  0.77256262     0.19000
C3757       C  0.76838711  0.87485952  0.80748488     0.16200
C3758       C  0.76793228  0.88511725  0.83155567    -0.18200
C3759       C  0.76997321  0.86233447  0.81831717    -0.20000
C3760       C  0.76728008  0.85041071  0.79541527    -0.12600
C3761       C  0.76370571  0.85116584  0.76101367     0.04100
C3762       C  0.76386451  0.86457444  0.74925728    -0.24700
H3763       H  0.75893653  0.90644144  0.77827156     0.09100
H3764       H  0.76122529  0.88960190  0.73556186     0.12800
H3765       H  0.76930045  0.88341583  0.85840302     0.12700
H3766       H  0.77203977  0.86112165  0.84502755     0.12400
H3767       H  0.76700498  0.84011555  0.80501578     0.13000
H3768       H  0.76072083  0.86504571  0.72291018     0.14900
C3769       C  0.76867461  0.79066155  0.64522040    -0.05100
C3770       C  0.78431651  0.79934346  0.65563863    -0.05000
C3771       C  0.79488735  0.79445534  0.64709374    -0.23200
C3772       C  0.79013294  0.78103165  0.62705271     0.19000
C3773       C  0.77464603  0.77274542  0.61481671     0.16200
C3774       C  0.76398608  0.77741669  0.62449908    -0.18200
C3775       C  0.76999709  0.75975717  0.59350545    -0.20000
C3776       C  0.78037637  0.75465312  0.58538380    -0.12600
C3777       C  0.79550734  0.76215820  0.59901371     0.04100
C3778       C  0.80039889  0.77549733  0.61967570    -0.24700
H3779       H  0.78824782  0.80964662  0.67133050     0.09100
H3780       H  0.80675060  0.80111078  0.65638340     0.12800
H3781       H  0.75202637  0.77078853  0.61572487     0.12700
H3782       H  0.75821126  0.75333443  0.58365549     0.12400
H3783       H  0.77627206  0.74423356  0.56999393     0.13000
H3784       H  0.81202059  0.78131539  0.63054034     0.14900
C3785       C  0.82997854  0.68449151  0.62683690    -0.05100
C3786       C  0.84446026  0.68854133  0.64139919    -0.05000
C3787       C  0.84789390  0.67709643  0.65032828    -0.23200
C3788       C  0.83705692  0.66147603  0.64381670     0.19000
C3789       C  0.82218420  0.65726317  0.63056366     0.16200
C3790       C  0.81861088  0.66879934  0.62297239    -0.18200
C3791       C  0.81162514  0.64171891  0.62241995    -0.20000
C3792       C  0.81635150  0.63075582  0.62403844    -0.12600
C3793       C  0.83139101  0.63510586  0.63528517     0.04100
C3794       C  0.84136616  0.65020266  0.64719424    -0.24700
H3795       H  0.85325947  0.70059745  0.64523327     0.09100
H3796       H  0.85930639  0.68050979  0.66057828     0.12800
H3797       H  0.80740129  0.66560904  0.61180209     0.12700
H3798       H  0.80019262  0.63829222  0.61227892     0.12400
H3799       H  0.80865739  0.61912148  0.61441337     0.13000
H3800       H  0.85310416  0.65356196  0.65512545     0.14900
C3801       C  0.79006342  0.69454759  0.48897455    -0.05100
C3802       C  0.78744298  0.69611840  0.97043652    -0.05000
C3803       C  0.78066319  0.68525864  0.94354160    -0.23200
C3804       C  0.77655778  0.66967171  0.94816875     0.19000
C3805       C  0.77896954  0.66497741  0.98050034     0.16200
C3806       C  0.78548996  0.67580629  0.00728229    -0.18200
C3807       C  0.77535996  0.64961210  0.98538001    -0.20000
C3808       C  0.77004078  0.63910289  0.95806621    -0.12600
C3809       C  0.76779792  0.64359715  0.92564843     0.04100
C3810       C  0.77071376  0.65882363  0.92088627    -0.24700
H3811       H  0.79078671  0.70809842  0.96600133     0.09100
H3812       H  0.77894284  0.68911726  0.91894508     0.12800
H3813       H  0.77079773  0.67611105  0.51605161     0.12700
H3814       H  0.77719358  0.64586940  0.01002596     0.12400
H3815       H  0.76805222  0.62750422  0.96200138     0.13000
H3816       H  0.76931507  0.66242330  0.89567339     0.14900
C3817       C  0.77980555  0.69411546  0.68200595    -0.05100
C3818       C  0.78187262  0.69735994  0.71725228    -0.05000
C3819       C  0.77487581  0.68534857  0.74103198    -0.23200
C3820       C  0.76605480  0.66985721  0.72990222     0.19000
C3821       C  0.76334468  0.66655153  0.69455756     0.16200
C3822       C  0.76988932  0.67869198  0.67097814    -0.18200
C3823       C  0.75511264  0.65108908  0.68316088    -0.20000
C3824       C  0.75060601  0.63900346  0.70637070    -0.12600
C3825       C  0.75382399  0.64214710  0.74143569     0.04100
C3826       C  0.76090613  0.65759764  0.75324790    -0.24700
H3827       H  0.78945383  0.70909468  0.72642625     0.09100
H3828       H  0.77707549  0.68809952  0.76803124     0.12800
H3829       H  0.76825476  0.67592010  0.64389820     0.12700
H3830       H  0.75294517  0.64836435  0.65613751     0.12400
H3831       H  0.74517487  0.62720077  0.69673993     0.13000
H3832       H  0.76365201  0.66014952  0.78018997     0.14900
C3833       C  0.23762223  0.02671741  0.61085401    -0.05100
C3834       C  0.22543545  0.01720427  0.58835398    -0.05000
C3835       C  0.21582799  0.00127811  0.59474269    -0.23200
C3836       C  0.21806827  0.99448877  0.62405658     0.19000
C3837       C  0.22972639  0.00406019  0.64789427     0.16200
C3838       C  0.23954520  0.02006614  0.64097657    -0.18200
C3839       C  0.23164427  0.99732253  0.67767288    -0.20000
C3840       C  0.22262185  0.98123554  0.68307618    -0.12600
C3841       C  0.21158767  0.97137933  0.65865073     0.04100
C3842       C  0.20921467  0.97825743  0.62936893    -0.24700
H3843       H  0.22374920  0.02198496  0.56501648     0.09100
H3844       H  0.20686223  0.99418879  0.57627379     0.12800
H3845       H  0.24890898  0.02727096  0.65856285     0.12700
H3846       H  0.24040589  0.00445567  0.69647614     0.12400
H3847       H  0.22481844  0.97640871  0.70571013     0.13000
H3848       H  0.20072345  0.97093230  0.61027498     0.14900
C3849       C  0.36238060  0.10061286  0.92603352    -0.05100
C3850       C  0.36584670  0.10339984  0.96115277    -0.05000
C3851       C  0.35405415  0.09620605  0.98567848    -0.23200
C3852       C  0.33851003  0.08626527  0.97552584     0.19000
C3853       C  0.33508742  0.08261371  0.94048306     0.16200
C3854       C  0.34702602  0.08950827  0.91619168    -0.18200
C3855       C  0.31958265  0.07310965  0.92990263    -0.20000
C3856       C  0.30746574  0.06837520  0.95333464    -0.12600
C3857       C  0.31074574  0.07283109  0.48663952     0.04100
C3858       C  0.32624213  0.08003536  0.49891674    -0.24700
H3859       H  0.37748199  0.11184440  0.96961455     0.09100
H3860       H  0.35695345  0.09911928  0.01242673     0.12800
H3861       H  0.34406024  0.08709314  0.88930866     0.12700
H3862       H  0.31676036  0.07018536  0.90312623     0.12400
H3863       H  0.29557766  0.06213432  0.94402222     0.13000
H3864       H  0.32856643  0.08287667  0.52587170     0.14900
C3865       C  0.31986725  0.08383049  0.65480634    -0.05100
C3866       C  0.31572475  0.07490685  0.68455759    -0.05000
C3867       C  0.32691128  0.07803523  0.70982532    -0.23200
C3868       C  0.34230993  0.09004864  0.70533967     0.19000
C3869       C  0.34673920  0.09816965  0.67411220     0.16200
C3870       C  0.33546235  0.09499802  0.64905437    -0.18200
C3871       C  0.36212433  0.11009077  0.66946877    -0.20000
C3872       C  0.37265616  0.11500842  0.69675346    -0.12600
C3873       C  0.36789219  0.10805387  0.72893279     0.04100
C3874       C  0.35300653  0.09493458  0.73244548    -0.24700
H3875       H  0.30371665  0.06621999  0.68913058     0.09100
H3876       H  0.32336787  0.07161354  0.73352241     0.12800
H3877       H  0.33864396  0.10175614  0.62576871     0.12700
H3878       H  0.36572684  0.11626771  0.64547329     0.12400
H3879       H  0.38407538  0.12509650  0.69344069     0.13000
H3880       H  0.34930760  0.08937916  0.75712232     0.14900
C3881       C  0.34803859  0.19249891  0.54671891    -0.05100
C3882       C  0.33249767  0.18891170  0.54761635    -0.05000
C3883       C  0.32057568  0.17402503  0.53874030    -0.23200
C3884       C  0.32411977  0.16263077  0.52885152     0.19000
C3885       C  0.33982608  0.16660829  0.52523862     0.16200
C3886       C  0.35166133  0.18154311  0.53397894    -0.18200
C3887       C  0.34344831  0.15523829  0.51583750    -0.20000
C3888       C  0.33173732  0.13972753  0.51420982    -0.12600
C3889       C  0.31630544  0.13556529  0.52077079     0.04100
C3890       C  0.31236927  0.14707131  0.52578802    -0.24700
H3891       H  0.32955282  0.19736206  0.55678361     0.09100
H3892       H  0.30860364  0.17120863  0.54131967     0.12800
H3893       H  0.36370145  0.18442851  0.53242213     0.12700
H3894       H  0.35542514  0.15815432  0.51263391     0.12400
H3895       H  0.33486338  0.13087011  0.51072297     0.13000
H3896       H  0.30043682  0.14374652  0.53147880     0.14900
C3897       C  0.15168546  0.89481929  0.76978038    -0.05100
C3898       C  0.15881041  0.89773854  0.80219156    -0.05000
C3899       C  0.15064383  0.88879370  0.83047969    -0.23200
C3900       C  0.13511196  0.87682646  0.82704026     0.19000
C3901       C  0.12741260  0.87452674  0.79530700     0.16200
C3902       C  0.13575208  0.88347251  0.76686687    -0.18200
C3903       C  0.11173372  0.86277995  0.79218990    -0.20000
C3904       C  0.10404667  0.85286999  0.81965359    -0.12600
C3905       C  0.11196807  0.85437194  0.85047402     0.04100
C3906       C  0.12740077  0.86665931  0.85427480    -0.24700
H3907       H  0.17102789  0.90625727  0.80523148     0.09100
H3908       H  0.15667746  0.89082709  0.85472802     0.12800
H3909       H  0.13004994  0.88108686  0.74211055     0.12700
H3910       H  0.10557748  0.86092321  0.76816735     0.12400
H3911       H  0.09219321  0.84348381  0.81614861     0.13000
H3912       H  0.13356015  0.86796817  0.87808775     0.14900
C3913       C  0.09947779  0.85448807  0.50845655    -0.05100
C3914       C  0.09445199  0.85511163  0.54157085    -0.05000
C3915       C  0.10416254  0.86703020  0.56423411    -0.23200
C3916       C  0.11934462  0.87808901  0.55462167     0.19000
C3917       C  0.12421472  0.87808189  0.52073640     0.16200
C3918       C  0.11405965  0.86651009  0.49754515    -0.18200
C3919       C  0.13960711  0.88873973  0.51160930    -0.20000
C3920       C  0.15039930  0.89837196  0.53648508    -0.12600
C3921       C  0.14594966  0.89769022  0.57084201     0.04100
C3922       C  0.13013279  0.88812399  0.57918468    -0.24700
H3923       H  0.08339154  0.84583471  0.55056889     0.09100
H3924       H  0.10023490  0.86687673  0.59010805     0.12800
H3925       H  0.11817782  0.86584383  0.47230359     0.12700
H3926       H  0.14355749  0.88891160  0.48574828     0.12400
H3927       H  0.16245597  0.90552960  0.52924165     0.13000
H3928       H  0.12647041  0.88743715  0.60550339     0.14900
C3929       C  0.86198144  0.75132911  0.50058108    -0.05100
C3930       C  0.87769233  0.75854394  0.51063716    -0.05000
C3931       C  0.88892618  0.75889894  0.48861201    -0.23200
C3932       C  0.88618147  0.75100476  0.96967337     0.19000
C3933       C  0.87175046  0.74849538  0.95689864     0.16200
C3934       C  0.86065840  0.74840633  0.97941755    -0.18200
C3935       C  0.86820291  0.74499988  0.92217756    -0.20000
C3936       C  0.87829356  0.74298521  0.90088900    -0.12600
C3937       C  0.89229375  0.74461379  0.91361862     0.04100
C3938       C  0.89646546  0.74924254  0.94787917    -0.24700
H3939       H  0.88108905  0.76301424  0.53646288     0.09100
H3940       H  0.90082259  0.76399248  0.49759131     0.12800
H3941       H  0.84924718  0.74544147  0.96989595     0.12700
H3942       H  0.85729660  0.74314656  0.91175859     0.12400
H3943       H  0.87487375  0.73965572  0.87446773     0.13000
H3944       H  0.90718089  0.75050345  0.95807422     0.14900
C3945       C  0.90826892  0.75613953  0.74608186    -0.05100
C3946       C  0.91241933  0.75762754  0.71149217    -0.05000
C3947       C  0.90345427  0.75980352  0.68687038    -0.23200
C3948       C  0.89011008  0.76027138  0.69657421     0.19000
C3949       C  0.88676968  0.76034594  0.73156105     0.16200
C3950       C  0.89612472  0.75868843  0.75612664    -0.18200
C3951       C  0.87322731  0.76042637  0.74124257    -0.20000
C3952       C  0.86220097  0.75863023  0.71654094    -0.12600
C3953       C  0.86473350  0.75705334  0.68182224     0.04100
C3954       C  0.87927007  0.75906228  0.67193862    -0.24700
H3955       H  0.92164860  0.75566032  0.70314279     0.09100
H3956       H  0.90622262  0.75984670  0.66009638     0.12800
H3957       H  0.89290060  0.75767304  0.78284358     0.12700
H3958       H  0.87058686  0.76063545  0.76801743     0.12400
H3959       H  0.85120602  0.75722378  0.72487137     0.13000
H3960       H  0.88151928  0.75808851  0.64520718     0.14900
C3961       C  0.03168262  0.78905312  0.91278769    -0.05100
C3962       C  0.02065649  0.78393355  0.93898072    -0.05000
C3963       C  0.00480595  0.77720057  0.93125873    -0.23200
C3964       C  0.99967367  0.77524002  0.89710542     0.19000
C3965       C  0.01068202  0.78047315  0.87046962     0.16200
C3966       C  0.02666104  0.78745832  0.87849891    -0.18200
C3967       C  0.00545209  0.77826599  0.83634557    -0.20000
C3968       C  0.98948653  0.77047289  0.82867224    -0.12600
C3969       C  0.97838564  0.76485875  0.85494699     0.04100
C3970       C  0.98369337  0.76768163  0.88921185    -0.24700
H3971       H  0.02432748  0.78504985  0.96546524     0.09100
H3972       H  0.99652843  0.77324622  0.95201004     0.12800
H3973       H  0.03515316  0.79131998  0.85816675     0.12700
H3974       H  0.01370291  0.78223797  0.81554324     0.12400
H3975       H  0.98583214  0.76856149  0.80211103     0.13000
H3976       H  0.97538006  0.76346578  0.90990681     0.14900
C3977       C  0.91810494  0.69510304  0.94046526    -0.05100
C3978       C  0.91309438  0.69914417  0.97035091    -0.05000
C3979       C  0.90524875  0.68813283  0.99577309    -0.23200
C3980       C  0.90235589  0.67292485  0.99179656     0.19000
C3981       C  0.90849173  0.66912962  0.96321143     0.16200
C3982       C  0.91636579  0.68024013  0.93786422    -0.18200
C3983       C  0.90601341  0.65405892  0.95962959    -0.20000
C3984       C  0.89708710  0.64269399  0.98351745    -0.12600
C3985       C  0.88923040  0.64538599  0.50960923     0.04100
C3986       C  0.89306563  0.66132212  0.01525853    -0.24700
H3987       H  0.91426698  0.71048902  0.97303516     0.09100
H3988       H  0.90085946  0.69132820  0.01780448     0.12800
H3989       H  0.92029769  0.67699745  0.91510915     0.12700
H3990       H  0.91076283  0.65099388  0.93804956     0.12400
H3991       H  0.89517847  0.63108230  0.98015793     0.13000
H3992       H  0.88356390  0.66190113  0.53104455     0.14900
C3993       C  0.92854345  0.69421229  0.74133167    -0.05100
C3994       C  0.92726364  0.69717688  0.70667173    -0.05000
C3995       C  0.92050433  0.68498416  0.68256336    -0.23200
C3996       C  0.91450704  0.66950444  0.69274858     0.19000
C3997       C  0.91622839  0.66644396  0.72719972     0.16200
C3998       C  0.92356218  0.67877483  0.75089876    -0.18200
C3999       C  0.90964082  0.65101056  0.73801714    -0.20000
C4000       C  0.90071747  0.63870355  0.71543867    -0.12600
C4001       C  0.89870683  0.64151162  0.68122121     0.04100
C4002       C  0.90603901  0.65699550  0.66972326    -0.24700
H4003       H  0.93083360  0.70883822  0.69844737     0.09100
H4004       H  0.91927388  0.68759771  0.65629274     0.12800
H4005       H  0.92424765  0.67613305  0.77746349     0.12700
H4006       H  0.91076862  0.64845428  0.76440004     0.12400
H4007       H  0.89506571  0.62693822  0.72491358     0.13000
H4008       H  0.90423778  0.65930320  0.64356705     0.14900
C4009       C  0.87138671  0.67620024  0.80047449    -0.05100
C4010       C  0.86825658  0.66219534  0.81552890    -0.05000
C4011       C  0.85336605  0.64932505  0.81382490    -0.23200
C4012       C  0.84153849  0.65035091  0.79685938     0.19000
C4013       C  0.84501814  0.66387606  0.77845633     0.16200
C4014       C  0.86000640  0.67675449  0.78031343    -0.18200
C4015       C  0.83315407  0.66470554  0.76094037    -0.20000
C4016       C  0.81774948  0.65288672  0.76458142    -0.12600
C4017       C  0.81421341  0.64028210  0.78582157     0.04100
C4018       C  0.82612554  0.63861813  0.80035418    -0.24700
H4019       H  0.87698752  0.66153001  0.83081331     0.09100
H4020       H  0.85089387  0.63892177  0.82751535     0.12800
H4021       H  0.86252332  0.68749114  0.76806198     0.12700
H4022       H  0.83567184  0.67486732  0.74620283     0.12400
H4023       H  0.80856225  0.65414084  0.75295778     0.13000
H4024       H  0.82329599  0.62866616  0.81624164     0.14900
C4025       C  0.24452066  0.09657347  0.50605601    -0.05100
C4026       C  0.24544107  0.10916142  0.52459682    -0.05000
C4027       C  0.24517809  0.12139305  0.50778515    -0.23200
C4028       C  0.24235657  0.12050913  0.95997665     0.19000
C4029       C  0.24383694  0.10923574  0.94086706     0.16200
C4030       C  0.24497483  0.09740054  0.95772699    -0.18200
C4031       C  0.24516241  0.11053884  0.90531118    -0.20000
C4032       C  0.24596067  0.12330561  0.88899202    -0.12600
C4033       C  0.24581340  0.13535372  0.90772068     0.04100
C4034       C  0.24364799  0.13370573  0.94339444    -0.24700
H4035       H  0.24777877  0.11025986  0.55186488     0.09100
H4036       H  0.24693029  0.13137197  0.52254352     0.12800
H4037       H  0.24741926  0.08961194  0.94314109     0.12700
H4038       H  0.24613412  0.10194891  0.89015180     0.12400
H4039       H  0.24765775  0.12416711  0.86155789     0.13000
H4040       H  0.24341097  0.14279121  0.95819863     0.14900
C4041       C  0.27128887  0.11800565  0.65713697    -0.05100
C4042       C  0.28432318  0.13303098  0.66077517    -0.05000
C4043       C  0.28305530  0.14500047  0.67602174    -0.23200
C4044       C  0.26876461  0.14226543  0.68853809     0.19000
C4045       C  0.25557849  0.12723282  0.68581584     0.16200
C4046       C  0.25687395  0.11519733  0.66986113    -0.18200
C4047       C  0.24148594  0.12446771  0.70005242    -0.20000
C4048       C  0.24080682  0.13615546  0.71875470    -0.12600
C4049       C  0.25400304  0.15099846  0.72231286     0.04100
C4050       C  0.26773456  0.15411985  0.70567656    -0.24700
H4051       H  0.29558023  0.13570664  0.65115411     0.09100
H4052       H  0.29332992  0.15640116  0.67827905     0.12800
H4053       H  0.24670911  0.10374258  0.66726266     0.12700
H4054       H  0.23125587  0.11301305  0.69858940     0.12400
H4055       H  0.23032916  0.13326412  0.73272618     0.13000
H4056       H  0.27817776  0.16528796  0.70970610     0.14900
C4057       C  0.30505101  0.15690739  0.84002495    -0.05100
C4058       C  0.30035707  0.14177615  0.82901916    -0.05000
C4059       C  0.31080897  0.13634584  0.83058543    -0.23200
C4060       C  0.32593284  0.14605011  0.84317446     0.19000
C4061       C  0.33025140  0.16097451  0.85597157     0.16200
C4062       C  0.31976767  0.16621309  0.85453004    -0.18200
C4063       C  0.34523600  0.17078710  0.86856035    -0.20000
C4064       C  0.35625608  0.16625776  0.86654098    -0.12600
C4065       C  0.35238829  0.15182180  0.85209228     0.04100
C4066       C  0.33705193  0.14146901  0.84168527    -0.24700
H4067       H  0.28891885  0.13446240  0.81796347     0.09100
H4068       H  0.30727521  0.12483585  0.82090230     0.12800
H4069       H  0.32326731  0.17781377  0.86368587     0.12700
H4070       H  0.34859301  0.18218401  0.87874506     0.12400
H4071       H  0.36796389  0.17429876  0.87532468     0.13000
H4072       H  0.33399456  0.13027247  0.83074687     0.14900
C4073       C  0.31217298  0.21848861  0.92441014    -0.05100
C4074       C  0.30875508  0.21839194  0.95924657    -0.05000
C4075       C  0.32073174  0.22659887  0.98310970    -0.23200
C4076       C  0.33630708  0.23484880  0.97251373     0.19000
C4077       C  0.33980676  0.23539479  0.93745256     0.16200
C4078       C  0.32774407  0.22746279  0.91370010    -0.18200
C4079       C  0.35537067  0.24314690  0.92684354    -0.20000
C4080       C  0.36795431  0.24736787  0.44406695    -0.12600
C4081       C  0.36486458  0.24917269  0.47826138     0.04100
C4082       C  0.34848224  0.24181331  0.99647679    -0.24700
H4083       H  0.29692013  0.21154109  0.96818308     0.09100
H4084       H  0.31786695  0.22601622  0.00997486     0.12800
H4085       H  0.33062333  0.22771699  0.88690207     0.12700
H4086       H  0.35821197  0.24363561  0.89997823     0.12400
H4087       H  0.37956559  0.25036998  0.43635080     0.13000
H4088       H  0.34575071  0.24082110  0.02349889     0.14900
C4089       C  0.31146314  0.22435402  0.74298604    -0.05100
C4090       C  0.30682576  0.22472626  0.70922160    -0.05000
C4091       C  0.31793710  0.23197333  0.68347609    -0.23200
C4092       C  0.33390043  0.23899340  0.69104701     0.19000
C4093       C  0.33874553  0.23979750  0.72530222     0.16200
C4094       C  0.32751591  0.23255530  0.75104494    -0.18200
C4095       C  0.35471767  0.24689687  0.73286045    -0.20000
C4096       C  0.36568976  0.25189632  0.70648144    -0.12600
C4097       C  0.36090579  0.24995787  0.67206887     0.04100
C4098       C  0.34499944  0.24422841  0.66474088    -0.24700
H4099       H  0.29461985  0.21850829  0.70225836     0.09100
H4100       H  0.31401995  0.23137145  0.65734525     0.12800
H4101       H  0.33128981  0.23248272  0.77703591     0.12700
H4102       H  0.35866210  0.24780556  0.75906481     0.12400
H4103       H  0.37779211  0.25633128  0.71298767     0.13000
H4104       H  0.34107860  0.24282617  0.63839224     0.14900
C4105       C  0.20846421  0.22962843  0.90625002    -0.05100
C4106       C  0.21237782  0.22277504  0.93287130    -0.05000
C4107       C  0.21996730  0.21442550  0.92597565    -0.23200
C4108       C  0.22393606  0.21282900  0.89231142     0.19000
C4109       C  0.21977343  0.21932706  0.86523385     0.16200
C4110       C  0.21201616  0.22755649  0.87229891    -0.18200
C4111       C  0.22378354  0.21781974  0.83158662    -0.20000
C4112       C  0.23224807  0.21036400  0.82488637    -0.12600
C4113       C  0.23684724  0.20414454  0.85162777     0.04100
C4114       C  0.23234310  0.20521799  0.88536150    -0.24700
H4115       H  0.20977692  0.22405401  0.95914731     0.09100
H4116       H  0.22300411  0.20946241  0.94710787     0.12800
H4117       H  0.20911109  0.23268874  0.85127747     0.12700
H4118       H  0.22064686  0.22269897  0.81045185     0.12400
H4119       H  0.23547431  0.20976550  0.79874056     0.13000
H4120       H  0.23573751  0.20051933  0.90641339     0.14900
C4121       C  0.14367452  0.23535985  0.50908506    -0.05100
C4122       C  0.12930495  0.23003843  0.00287430    -0.05000
C4123       C  0.11713949  0.22968712  0.02143850    -0.23200
C4124       C  0.11964584  0.23485725  0.54871744     0.19000
C4125       C  0.13433965  0.23940675  0.56360890     0.16200
C4126       C  0.14621080  0.23945637  0.54388312    -0.18200
C4127       C  0.13740424  0.24516892  0.59706043    -0.20000
C4128       C  0.12669266  0.24772262  0.61444620    -0.12600
C4129       C  0.11265006  0.24485358  0.59879303     0.04100
C4130       C  0.10884471  0.23762983  0.56634052    -0.24700
H4131       H  0.12720976  0.22635848  0.97630867     0.09100
H4132       H  0.10594345  0.22538187  0.00907040     0.12800
H4133       H  0.15786604  0.24451827  0.55440188     0.12700
H4134       H  0.14844545  0.24846897  0.60923460     0.12400
H4135       H  0.12996299  0.25289095  0.63973865     0.13000
H4136       H  0.09807214  0.23513804  0.55395801     0.14900
C4137       C  0.14374190  0.24444156  0.83380776    -0.05100
C4138       C  0.14695414  0.24335703  0.79930872    -0.05000
C4139       C  0.13715005  0.24329414  0.77357264    -0.23200
C4140       C  0.12410855  0.24449902  0.78201786     0.19000
C4141       C  0.12005271  0.24432204  0.81660328     0.16200
C4142       C  0.12975282  0.24400490  0.84228060    -0.18200
C4143       C  0.10707837  0.24573139  0.82492241    -0.20000
C4144       C  0.09903143  0.24866459  0.79931270    -0.12600
C4145       C  0.10384365  0.25009796  0.76522994     0.04100
C4146       C  0.11582305  0.24713599  0.75658320    -0.24700
H4147       H  0.15759993  0.24367219  0.79209391     0.09100
H4148       H  0.14030912  0.24330373  0.74709512     0.12800
H4149       H  0.12704561  0.24470337  0.86881636     0.12700
H4150       H  0.10375411  0.24550165  0.85134430     0.12400
H4151       H  0.08981779  0.25087861  0.80640669     0.13000
H4152       H  0.11944251  0.24802173  0.73017068     0.14900
C4153       C  0.91788605  0.22716333  0.00118237    -0.05100
C4154       C  0.91013890  0.23330492  0.01998027    -0.05000
C4155       C  0.90221862  0.23978187  0.00329195    -0.23200
C4156       C  0.90204916  0.24046100  0.96738975     0.19000
C4157       C  0.91088467  0.23546202  0.94859519     0.16200
C4158       C  0.91857187  0.22875407  0.96545812    -0.18200
C4159       C  0.91115868  0.23636392  0.91294134    -0.20000
C4160       C  0.90188400  0.24097613  0.89582209    -0.12600
C4161       C  0.89191637  0.24470520  0.91366832     0.04100
C4162       C  0.89254556  0.24509487  0.94979276    -0.24700
H4163       H  0.91952209  0.23739059  0.54945542     0.09100
H4164       H  0.89567007  0.24361889  0.01841109     0.12800
H4165       H  0.92439433  0.22399283  0.95061786     0.12700
H4166       H  0.91802905  0.23281873  0.89810721     0.12400
H4167       H  0.90181894  0.24073557  0.86810020     0.13000
H4168       H  0.88490864  0.24784328  0.96400150     0.14900
C4169       C  0.91354405  0.21587854  0.67505362    -0.05100
C4170       C  0.91030827  0.20897529  0.70730093    -0.05000
C4171       C  0.90407162  0.21396801  0.73281112    -0.23200
C4172       C  0.90051053  0.22560098  0.72596771     0.19000
C4173       C  0.90446197  0.23322546  0.69412683     0.16200
C4174       C  0.91126545  0.22846917  0.66889135    -0.18200
C4175       C  0.90047935  0.24462061  0.68739687    -0.20000
C4176       C  0.89171453  0.24761455  0.71105167    -0.12600
C4177       C  0.88697879  0.23937362  0.74189070     0.04100
C4178       C  0.89207953  0.22890317  0.74966141    -0.24700
H4179       H  0.91182692  0.19914103  0.71210194     0.09100
H4180       H  0.90112493  0.20805602  0.75716949     0.12800
H4181       H  0.91348382  0.23357796  0.64365013     0.12700
H4182       H  0.90351832  0.25069209  0.66324574     0.12400
H4183       H  0.88815714  0.25591522  0.70466499     0.13000
H4184       H  0.88880170  0.22264058  0.77359556     0.14900
C4185       C  0.81464987  0.16732066  0.53763359    -0.05100
C4186       C  0.82421600  0.17996629  0.55898600    -0.05000
C4187       C  0.84023156  0.18658625  0.55804516    -0.23200
C4188       C  0.84683416  0.18033215  0.53640816     0.19000
C4189       C  0.83744899  0.16834551  0.51292205     0.16200
C4190       C  0.82129522  0.16212075  0.51310530    -0.18200
C4191       C  0.84427218  0.16191392  0.49207770    -0.20000
C4192       C  0.85982741  0.16611483  0.49734079    -0.12600
C4193       C  0.86858609  0.17694452  0.52300020     0.04100
C4194       C  0.86240297  0.18481931  0.54050690    -0.24700
H4195       H  0.81923111  0.18429170  0.57754447     0.09100
H4196       H  0.84734246  0.19585784  0.57591729     0.12800
H4197       H  0.81388796  0.15236887  0.49657359     0.12700
H4198       H  0.83733066  0.15286726  0.47361726     0.12400
H4199       H  0.86459892  0.16008659  0.48336448     0.13000
H4200       H  0.86935097  0.19343104  0.55983930     0.14900
C4201       C  0.86016828  0.09935500  0.93075601    -0.05100
C4202       C  0.85857361  0.09613977  0.96590446    -0.05000
C4203       C  0.87083019  0.10524083  0.98861448    -0.23200
C4204       C  0.88474543  0.11782005  0.97649054     0.19000
C4205       C  0.88686871  0.12027625  0.94092159     0.16200
C4206       C  0.87474233  0.11080478  0.91833161    -0.18200
C4207       C  0.90047442  0.13309422  0.92861764    -0.20000
C4208       C  0.91108608  0.14431751  0.95136130    -0.12600
C4209       C  0.90856833  0.14262315  0.98676400     0.04100
C4210       C  0.89587776  0.12881893  0.99925855    -0.24700
H4211       H  0.84752344  0.08736740  0.97611337     0.09100
H4212       H  0.86902553  0.10311956  0.01579882     0.12800
H4213       H  0.87621746  0.11328608  0.89121117     0.12700
H4214       H  0.90229006  0.13508592  0.90139485     0.12400
H4215       H  0.92069481  0.15486319  0.94119784     0.13000
H4216       H  0.89365387  0.12752661  0.02650060     0.14900
C4217       C  0.88785113  0.13715080  0.65352361    -0.05100
C4218       C  0.87286030  0.12643202  0.64142120    -0.05000
C4219       C  0.86209513  0.11459236  0.66237365    -0.23200
C4220       C  0.86591079  0.11350056  0.69637637     0.19000
C4221       C  0.88112228  0.12393331  0.70861493     0.16200
C4222       C  0.89212629  0.13549189  0.68685929    -0.18200
C4223       C  0.88470462  0.12330673  0.74306782    -0.20000
C4224       C  0.87313750  0.11323484  0.76554385    -0.12600
C4225       C  0.85787143  0.10317490  0.75391995     0.04100
C4226       C  0.85447011  0.10293928  0.71894093    -0.24700
H4227       H  0.86931109  0.12753214  0.61585711     0.09100
H4228       H  0.85052844  0.10677400  0.65247165     0.12800
H4229       H  0.90355160  0.14387098  0.69662848     0.12700
H4230       H  0.89622909  0.13120781  0.75307133     0.12400
H4231       H  0.87594495  0.11376707  0.79249698     0.13000
H4232       H  0.84263553  0.09554969  0.70994001     0.14900
C4233       C  0.97515851  0.20223587  0.60791249    -0.05100
C4234       C  0.98440768  0.19831752  0.58800859    -0.05000
C4235       C  0.00038339  0.20504180  0.59501275    -0.23200
C4236       C  0.00728797  0.21555119  0.62248261     0.19000
C4237       C  0.99784022  0.21883919  0.64371398     0.16200
C4238       C  0.98193819  0.21234042  0.63603287    -0.18200
C4239       C  0.00451963  0.22890661  0.67179736    -0.20000
C4240       C  0.02052287  0.23620772  0.67803448    -0.12600
C4241       C  0.03027529  0.23380657  0.65606859     0.04100
C4242       C  0.02347938  0.22316555  0.62858641    -0.24700
H4243       H  0.97940422  0.19054991  0.56625767     0.09100
H4244       H  0.00737973  0.20223931  0.57859879     0.12800
H4245       H  0.97482046  0.21528599  0.65170949     0.12700
H4246       H  0.99740891  0.23142287  0.68853542     0.12400
H4247       H  0.02536558  0.24431709  0.69926497     0.13000
H4248       H  0.03080515  0.22107869  0.61155529     0.14900
C4249       C  0.48346545  0.50510498  0.77871100    -0.05100
C4250       C  0.49359729  0.51819639  0.75960756    -0.05000
C4251       C  0.50957904  0.52379934  0.76048865    -0.23200
C4252       C  0.51554921  0.51635130  0.78047392     0.19000
C4253       C  0.50555231  0.50404090  0.80206361     0.16200
C4254       C  0.48959151  0.49859687  0.80123670    -0.18200
C4255       C  0.51150293  0.49657763  0.82207417    -0.20000
C4256       C  0.52702412  0.50056651  0.81898539    -0.12600
C4257       C  0.53659377  0.51185047  0.79545312     0.04100
C4258       C  0.53105379  0.52016028  0.77727265    -0.24700
H4259       H  0.48909119  0.52344043  0.74228775     0.09100
H4260       H  0.51713609  0.53337291  0.74412535     0.12800
H4261       H  0.48183314  0.48865090  0.81651312     0.12700
H4262       H  0.50395062  0.48702764  0.83844531     0.12400
H4263       H  0.53122399  0.49405462  0.83298691     0.13000
H4264       H  0.53856380  0.52890985  0.75914259     0.14900
C4265       C  0.44395666  0.40810673  0.90238202    -0.05100
C4266       C  0.44299130  0.40411927  0.86764385    -0.05000
C4267       C  0.43488507  0.40826537  0.84465735    -0.23200
C4268       C  0.42776743  0.41656208  0.85615174     0.19000
C4269       C  0.42715402  0.41902914  0.89151454     0.16200
C4270       C  0.43502314  0.41451955  0.91447233    -0.18200
C4271       C  0.42013780  0.42743943  0.90295200    -0.20000
C4272       C  0.41550041  0.43493795  0.87945822    -0.12600
C4273       C  0.41764782  0.43394054  0.84429990     0.04100
C4274       C  0.42275475  0.42381376  0.83280970    -0.24700
H4275       H  0.44970744  0.39917244  0.85774604     0.09100
H4276       H  0.43526558  0.40610544  0.81760750     0.12800
H4277       H  0.43554833  0.41748569  0.94134343     0.12700
H4278       H  0.41940002  0.42926434  0.93004165     0.12400
H4279       H  0.41161905  0.44263407  0.88891841     0.13000
H4280       H  0.42432971  0.42285469  0.80566791     0.14900
C4281       C  0.43361531  0.43890597  0.67639784    -0.05100
C4282       C  0.44294256  0.43329648  0.68995305    -0.05000
C4283       C  0.44853703  0.42589798  0.66902150    -0.23200
C4284       C  0.44515312  0.42424599  0.63401770     0.19000
C4285       C  0.43518375  0.42919512  0.62037182     0.16200
C4286       C  0.42921707  0.43623129  0.64182639    -0.18200
C4287       C  0.43226581  0.42803401  0.58511514    -0.20000
C4288       C  0.44014714  0.42324784  0.56338523    -0.12600
C4289       C  0.45064596  0.41909555  0.57672447     0.04100
C4290       C  0.45250257  0.41882059  0.61212381    -0.24700
H4291       H  0.44633584  0.43506570  0.71669318     0.09100
H4292       H  0.45611447  0.42215528  0.67991813     0.12800
H4293       H  0.42211234  0.44059900  0.63116490     0.12700
H4294       H  0.42462282  0.43168656  0.57418504     0.12400
H4295       H  0.43855721  0.42340639  0.53599159     0.13000
H4296       H  0.46073773  0.41576794  0.62235548     0.14900
C4297       C  0.30933307  0.42450024  0.68349594    -0.05100
C4298       C  0.31974680  0.42892707  0.65592675    -0.05000
C4299       C  0.33587172  0.43618202  0.66154955    -0.23200
C4300       C  0.34207170  0.43921747  0.69493315     0.19000
C4301       C  0.33184627  0.43503720  0.72290601     0.16200
C4302       C  0.31562486  0.42776738  0.71707468    -0.18200
C4303       C  0.33802292  0.43806125  0.75629357    -0.20000
C4304       C  0.35411510  0.44511994  0.76197479    -0.12600
C4305       C  0.36452139  0.44931931  0.73446925     0.04100
C4306       C  0.35828127  0.44626095  0.70082689    -0.24700
H4307       H  0.31541790  0.42658945  0.62985405     0.09100
H4308       H  0.34350058  0.43930279  0.63969343     0.12800
H4309       H  0.30789911  0.42443396  0.73879945     0.12700
H4310       H  0.33038153  0.43491159  0.77813345     0.12400
H4311       H  0.35840389  0.44716617  0.78807635     0.13000
H4312       H  0.36601538  0.44934118  0.67916381     0.14900
C4313       C  0.13988645  0.31675336  0.62881656    -0.05100
C4314       C  0.15007769  0.31211819  0.61613251    -0.05000
C4315       C  0.16540917  0.32308863  0.60921247    -0.23200
C4316       C  0.17080611  0.33874857  0.61615958     0.19000
C4317       C  0.16035385  0.34366284  0.62647553     0.16200
C4318       C  0.14470755  0.33255549  0.63178047    -0.18200
C4319       C  0.16607190  0.35935870  0.63455007    -0.20000
C4320       C  0.18212578  0.36966350  0.63615059    -0.12600
C4321       C  0.19244324  0.36433459  0.62897156     0.04100
C4322       C  0.18670678  0.34923267  0.61652927    -0.24700
H4323       H  0.14633590  0.29992835  0.61314237     0.09100
H4324       H  0.17329265  0.31921804  0.60099712     0.12800
H4325       H  0.13675279  0.33606472  0.64152988     0.12700
H4326       H  0.15823126  0.36336463  0.64219012     0.12400
H4327       H  0.18643229  0.38137116  0.64551986     0.13000
H4328       H  0.19471142  0.34520643  0.61038634     0.14900
C4329       C  0.25105289  0.35150098  0.58280201    -0.05100
C4330       C  0.25733444  0.35487703  0.54975307    -0.05000
C4331       C  0.25354581  0.34289413  0.52590676    -0.23200
C4332       C  0.24335621  0.32732063  0.53464936     0.19000
C4333       C  0.23773852  0.32372062  0.56835159     0.16200
C4334       C  0.24175210  0.33577923  0.59222803    -0.18200
C4335       C  0.22742482  0.30819147  0.57705271    -0.20000
C4336       C  0.22182142  0.29645063  0.55201289    -0.12600
C4337       C  0.22654647  0.29996988  0.51784067     0.04100
C4338       C  0.23791662  0.31542045  0.50978714    -0.24700
H4339       H  0.26445234  0.36679737  0.54172659     0.09100
H4340       H  0.25801688  0.34586394  0.50015192     0.12800
H4341       H  0.23687849  0.33292457  0.61769167     0.12700
H4342       H  0.22305011  0.30523228  0.60288164     0.12400
H4343       H  0.21304159  0.28479993  0.55901441     0.13000
H4344       H  0.24172497  0.31760305  0.98913017     0.14900
C4345       C  0.24218934  0.35287324  0.75933140    -0.05100
C4346       C  0.24824611  0.35712022  0.79262575    -0.05000
C4347       C  0.24474293  0.34576524  0.81735638    -0.23200
C4348       C  0.23514421  0.32998420  0.80914059     0.19000
C4349       C  0.22949683  0.32555238  0.77541291     0.16200
C4350       C  0.23312715  0.33699209  0.75072551    -0.18200
C4351       C  0.21982004  0.30978270  0.76724868    -0.20000
C4352       C  0.21510875  0.29853854  0.79273739    -0.12600
C4353       C  0.22008852  0.30286867  0.82673627     0.04100
C4354       C  0.23055137  0.31862642  0.83444272    -0.24700
H4355       H  0.25529696  0.36922775  0.79984544     0.09100
H4356       H  0.24919928  0.34934196  0.84312088     0.12800
H4357       H  0.22851717  0.33350208  0.72502032     0.12700
H4358       H  0.21542149  0.30620267  0.74144478     0.12400
H4359       H  0.20695626  0.28655634  0.78612975     0.13000
H4360       H  0.23449659  0.32219327  0.86053245     0.14900
C4361       C  0.22279378  0.90849830  0.75942852    -0.05100
C4362       C  0.22452249  0.91468381  0.79253446    -0.05000
C4363       C  0.23204143  0.91105586  0.81816024    -0.23200
C4364       C  0.23803588  0.90124497  0.81106073     0.19000
C4365       C  0.23715922  0.89567387  0.77743236     0.16200
C4366       C  0.22957933  0.89934096  0.75189666    -0.18200
C4367       C  0.24329317  0.88599114  0.77026512    -0.20000
C4368       C  0.24935639  0.88106567  0.79661319    -0.12600
C4369       C  0.24938986  0.88573070  0.83058162     0.04100
C4370       C  0.24421072  0.89632044  0.83730708    -0.24700
H4371       H  0.21949441  0.92178238  0.79897347     0.09100
H4372       H  0.23273304  0.91552955  0.84381308     0.12800
H4373       H  0.22855958  0.89465958  0.72631338     0.12700
H4374       H  0.24283465  0.88172539  0.74449629     0.12400
H4375       H  0.25320421  0.87292743  0.79068002     0.13000
H4376       H  0.24427107  0.90015713  0.86333118     0.14900
C4377       C  0.25746572  0.89220685  0.52628709    -0.05100
C4378       C  0.25877845  0.89055344  0.56156214    -0.05000
C4379       C  0.25397727  0.89791392  0.58502179    -0.23200
C4380       C  0.24729080  0.90656237  0.57344103     0.19000
C4381       C  0.24676000  0.90902609  0.53812352     0.16200
C4382       C  0.25230277  0.90224907  0.51488410    -0.18200
C4383       C  0.23945672  0.91706761  0.52640835    -0.20000
C4384       C  0.23147355  0.92136919  0.54922705    -0.12600
C4385       C  0.23108559  0.91810115  0.58417716     0.04100
C4386       C  0.23989408  0.91156804  0.59631078    -0.24700
H4387       H  0.26856771  0.88872603  0.06277526     0.09100
H4388       H  0.25450880  0.89596895  0.61208671     0.12800
H4389       H  0.25115174  0.90361895  0.48775098     0.12700
H4390       H  0.23900344  0.91907395  0.49934975     0.12400
H4391       H  0.22486118  0.92640353  0.53923576     0.13000
H4392       H  0.23978651  0.90898576  0.62322056     0.14900
C4393       C  0.19993991  0.84739752  0.96932455    -0.05100
C4394       C  0.19730390  0.85988088  0.96588686    -0.05000
C4395       C  0.18269467  0.85789269  0.97241283    -0.23200
C4396       C  0.17057322  0.84341867  0.98260519     0.19000
C4397       C  0.17344376  0.83114913  0.98901687     0.16200
C4398       C  0.18818687  0.83324679  0.98241573    -0.18200
C4399       C  0.16120521  0.81667837  0.99933370    -0.20000
C4400       C  0.14600334  0.81397288  0.99979992    -0.12600
C4401       C  0.14305834  0.82577259  0.99031866     0.04100
C4402       C  0.15539296  0.84065381  0.98359246    -0.24700
H4403       H  0.20628672  0.87095165  0.95629022     0.09100
H4404       H  0.18067744  0.86743346  0.96779439     0.12800
H4405       H  0.19027238  0.82367020  0.98577539     0.12700
H4406       H  0.16322706  0.80720007  0.00471399     0.12400
H4407       H  0.13647406  0.80238188  0.00469584     0.13000
H4408       H  0.15298627  0.84968855  0.97606794     0.14900
C4409       C  0.36464896  0.89588281  0.98274097    -0.05100
C4410       C  0.35453994  0.88929396  0.01050486    -0.05000
C4411       C  0.33843339  0.88163262  0.00562765    -0.23200
C4412       C  0.33207519  0.88047003  0.97289678     0.19000
C4413       C  0.34200558  0.88671075  0.94456924     0.16200
C4414       C  0.35821761  0.89427097  0.94960134    -0.18200
C4415       C  0.33552625  0.88558339  0.91188968    -0.20000
C4416       C  0.31935916  0.87856985  0.90747689    -0.12600
C4417       C  0.30937163  0.87252896  0.93564749     0.04100
C4418       C  0.31593598  0.87342491  0.96826118    -0.24700
H4419       H  0.35907762  0.89030842  0.03619407     0.09100
H4420       H  0.33094085  0.87686255  0.02761181     0.12800
H4421       H  0.36360513  0.89689960  0.43538372     0.12700
H4422       H  0.34051696  0.88604883  0.39810347     0.12400
H4423       H  0.31470700  0.87813872  0.88215850     0.13000
H4424       H  0.30849339  0.86883351  0.99038285     0.14900
C4425       C  0.41994929  0.96741961  0.60008900    -0.05100
C4426       C  0.41923064  0.96332798  0.63460679    -0.05000
C4427       C  0.42432004  0.97471803  0.66043303    -0.23200
C4428       C  0.43029162  0.99040772  0.65214929     0.19000
C4429       C  0.43026450  0.99453379  0.61769795     0.16200
C4430       C  0.42492631  0.98302455  0.59205846    -0.18200
C4431       C  0.43649646  0.01023373  0.60919846    -0.20000
C4432       C  0.44351821  0.02182746  0.63436417    -0.12600
C4433       C  0.44409284  0.01788094  0.66844568     0.04100
C4434       C  0.43711231  0.00212804  0.67736950    -0.24700
H4435       H  0.41559303  0.95149168  0.64151182     0.09100
H4436       H  0.42423485  0.97135174  0.68674163     0.12800
H4437       H  0.42552044  0.98639957  0.56556655     0.12700
H4438       H  0.43659587  0.01358762  0.58287119     0.12400
H4439       H  0.44910119  0.03389711  0.62699631     0.13000
H4440       H  0.43785708  0.99907911  0.70358651     0.14900
C4441       C  0.41841002  0.96866180  0.90904813    -0.05100
C4442       C  0.41675117  0.96559622  0.87367090    -0.05000
C4443       C  0.42109231  0.97768526  0.85023904    -0.23200
C4444       C  0.42757764  0.99310557  0.86176865     0.19000
C4445       C  0.42866745  0.99620740  0.89724896     0.16200
C4446       C  0.42369626  0.98397410  0.92049324    -0.18200
C4447       C  0.43579537  0.01161119  0.90905217    -0.20000
C4448       C  0.44280132  0.02388645  0.88603133    -0.12600
C4449       C  0.44226332  0.02098856  0.85075394     0.04100
C4450       C  0.43401763  0.00554369  0.83864809    -0.24700
H4451       H  0.41273342  0.95397645  0.86407633     0.09100
H4452       H  0.42016527  0.97507823  0.82311141     0.12800
H4453       H  0.42513236  0.98664301  0.94762903     0.12700
H4454       H  0.43675234  0.01417489  0.93620843     0.12400
H4455       H  0.44915824  0.03566109  0.89586523     0.13000
H4456       H  0.43382508  0.00319638  0.81149258     0.14900
C4457       C  0.47747495  0.97570243  0.48975011    -0.05100
C4458       C  0.48876893  0.96907059  0.97693018    -0.05000
C4459       C  0.50405499  0.98008805  0.97018123    -0.23200
C4460       C  0.50821230  0.99561794  0.96678293     0.19000
C4461       C  0.49651346  0.00309419  0.48718332     0.16200
C4462       C  0.48132992  0.99125412  0.49300121    -0.18200
C4463       C  0.50079139  0.01867478  0.49224009    -0.20000
C4464       C  0.51635453  0.03025726  0.48955400    -0.12600
C4465       C  0.52821756  0.02259055  0.96611086     0.04100
C4466       C  0.52376699  0.00687729  0.96479806    -0.24700
H4467       H  0.48589872  0.95717275  0.98059030     0.09100
H4468       H  0.51271687  0.97656990  0.96910571     0.12800
H4469       H  0.47263835  0.99412521  0.50082881     0.12700
H4470       H  0.49225965  0.02180799  0.49973154     0.12400
H4471       H  0.51966662  0.04213530  0.49558906     0.13000
H4472       H  0.53243676  0.00334817  0.96511882     0.14900
C4473       C  0.65162520  0.88890264  0.75121972    -0.05100
C4474       C  0.66562800  0.89615155  0.73289310    -0.05000
C4475       C  0.67992996  0.90416690  0.75012824    -0.23200
C4476       C  0.68042103  0.90524974  0.78594813     0.19000
C4477       C  0.66629062  0.89920705  0.80414242     0.16200
C4478       C  0.65201372  0.89091867  0.78675475    -0.18200
C4479       C  0.66663817  0.90065757  0.83971090    -0.20000
C4480       C  0.68066701  0.90662464  0.85739868    -0.12600
C4481       C  0.69465519  0.91099958  0.84001533     0.04100
C4482       C  0.69460738  0.91116929  0.80404040    -0.24700
H4483       H  0.66555389  0.89462590  0.70541926     0.09100
H4484       H  0.69057584  0.90884735  0.73557973     0.12800
H4485       H  0.64124059  0.88536202  0.80098714     0.12700
H4486       H  0.65597087  0.89641789  0.85402945     0.12400
H4487       H  0.68035064  0.90670287  0.88509107     0.13000
H4488       H  0.70527374  0.91459581  0.79028018     0.14900
C4489       C  0.64983643  0.88233831  0.58919290    -0.05100
C4490       C  0.64598461  0.88562460  0.55704660    -0.05000
C4491       C  0.65761268  0.89403742  0.53308151    -0.23200
C4492       C  0.67329651  0.89948559  0.54114428     0.19000
C4493       C  0.67738354  0.89701101  0.57416389     0.16200
C4494       C  0.66558865  0.88830506  0.59790460    -0.18200
C4495       C  0.69312397  0.90264477  0.58219354    -0.20000
C4496       C  0.70456689  0.90964540  0.55699723    -0.12600
C4497       C  0.70042357  0.91107597  0.52344847     0.04100
C4498       C  0.68483190  0.90651895  0.51611171    -0.24700
H4499       H  0.63392437  0.88108704  0.54995492     0.09100
H4500       H  0.65430257  0.89589110  0.50790421     0.12800
H4501       H  0.66859343  0.88582791  0.62282322     0.12700
H4502       H  0.69648352  0.90093900  0.60744941     0.12400
H4503       H  0.71685520  0.90812945  0.05840115     0.13000
H4504       H  0.68152175  0.90743672  0.49015794     0.14900
C4505       C  0.63985899  0.81878168  0.70830468    -0.05100
C4506       C  0.63725156  0.80609036  0.68792772    -0.05000
C4507       C  0.64629734  0.79924735  0.69239513    -0.23200
C4508       C  0.65845612  0.80546258  0.71634305     0.19000
C4509       C  0.66066081  0.81773222  0.73830286     0.16200
C4510       C  0.65097742  0.82405518  0.73474642    -0.18200
C4511       C  0.67337685  0.82434774  0.76106168    -0.20000
C4512       C  0.68478783  0.82012583  0.75899126    -0.12600
C4513       C  0.68323493  0.80900331  0.73479200     0.04100
C4514       C  0.66944625  0.80077755  0.71585883    -0.24700
H4515       H  0.62851233  0.80178631  0.66784878     0.09100
H4516       H  0.64448455  0.78981219  0.67551278     0.12800
H4517       H  0.65297732  0.83390949  0.75040529     0.12700
H4518       H  0.67517241  0.83366795  0.77828263     0.12400
H4519       H  0.69538440  0.82651255  0.77386902     0.13000
H4520       H  0.66821377  0.79201802  0.69748703     0.14900
C4521       C  0.47812054  0.90336058  0.66865322    -0.05100
C4522       C  0.47988937  0.89993500  0.63473427    -0.05000
C4523       C  0.46940618  0.89878136  0.60930971    -0.23200
C4524       C  0.45709267  0.90128457  0.61732153     0.19000
C4525       C  0.45451089  0.90363511  0.65174359     0.16200
C4526       C  0.46501680  0.90457303  0.67726711    -0.18200
C4527       C  0.44225173  0.90629199  0.65953078    -0.20000
C4528       C  0.43347079  0.90785703  0.63326920    -0.12600
C4529       C  0.43678233  0.90677620  0.59878163     0.04100
C4530       C  0.44815691  0.90273512  0.59121121    -0.24700
H4531       H  0.49011013  0.89944147  0.62739369     0.09100
H4532       H  0.47154437  0.89696308  0.58301669     0.12800
H4533       H  0.46383835  0.90769146  0.70323276     0.12700
H4534       H  0.44002179  0.90802526  0.68580924     0.12400
H4535       H  0.42487469  0.91102027  0.63989012     0.13000
H4536       H  0.45082157  0.90179059  0.56475509     0.14900
C4537       C  0.44133752  0.90655966  0.90736655    -0.05100
C4538       C  0.43760064  0.90573986  0.87241635    -0.05000
C4539       C  0.44656600  0.90364924  0.84760194    -0.23200
C4540       C  0.45960206  0.90255661  0.85718757     0.19000
C4541       C  0.46295065  0.90245918  0.89225938     0.16200
C4542       C  0.45366527  0.90416540  0.91702828    -0.18200
C4543       C  0.47628134  0.90194304  0.90196842    -0.20000
C4544       C  0.48689353  0.90289356  0.87727925    -0.12600
C4545       C  0.48409704  0.90374903  0.84238797     0.04100
C4546       C  0.47005237  0.90288230  0.83243675    -0.24700
H4547       H  0.42825389  0.90754378  0.86408867     0.09100
H4548       H  0.44379636  0.90373009  0.82083042     0.12800
H4549       H  0.45678368  0.90474805  0.94378901     0.12700
H4550       H  0.47907105  0.90193301  0.92875785     0.12400
H4551       H  0.49782788  0.90406922  0.88557278     0.13000
H4552       H  0.46808805  0.90415643  0.80567156     0.14900
C4553       C  0.55187166  0.90159694  0.73279509    -0.05100
C4554       C  0.56803363  0.90949694  0.73879273    -0.05000
C4555       C  0.57703485  0.90291263  0.73005346    -0.23200
C4556       C  0.57019180  0.88816120  0.71500481     0.19000
C4557       C  0.55393668  0.87969021  0.70958069     0.16200
C4558       C  0.54480184  0.88643736  0.71860442    -0.18200
C4559       C  0.54727492  0.86475224  0.69488695    -0.20000
C4560       C  0.55660559  0.85839150  0.68579670    -0.12600
C4561       C  0.57283886  0.86691504  0.69065001     0.04100
C4562       C  0.57946258  0.88184169  0.70530901    -0.24700
H4563       H  0.57388358  0.92104443  0.74990520     0.09100
H4564       H  0.58945736  0.90950201  0.73471636     0.12800
H4565       H  0.53239789  0.88013902  0.71366939     0.12700
H4566       H  0.53484879  0.85796985  0.69048219     0.12400
H4567       H  0.55113165  0.84684619  0.67472666     0.13000
H4568       H  0.59190368  0.88852485  0.70974794     0.14900
C4569       C  0.49373668  0.01433405  0.78736294    -0.05100
C4570       C  0.50438151  0.01564192  0.81255261    -0.05000
C4571       C  0.50897319  0.00456272  0.81427873    -0.23200
C4572       C  0.50287859  0.99214318  0.79088083     0.19000
C4573       C  0.49152792  0.99047359  0.76666975     0.16200
C4574       C  0.48695023  0.00150212  0.76533654    -0.18200
C4575       C  0.48549889  0.97825250  0.74297540    -0.20000
C4576       C  0.49123953  0.96815555  0.74207257    -0.12600
C4577       C  0.50284902  0.97001144  0.76525087     0.04100
C4578       C  0.50834890  0.98172416  0.79026607    -0.24700
H4579       H  0.50970344  0.02560045  0.82960984     0.09100
H4580       H  0.51765249  0.00599107  0.83301847     0.12800
H4581       H  0.47859868  0.00049844  0.74609471     0.12700
H4582       H  0.47672820  0.97681004  0.72446253     0.12400
H4583       H  0.48674218  0.95898226  0.72296705     0.13000
H4584       H  0.51735139  0.98314579  0.80810119     0.14900
C4585       C  0.59143475  0.02575936  0.89867790    -0.05100
C4586       C  0.59285607  0.02916739  0.86359845    -0.05000
C4587       C  0.58849260  0.01730346  0.83901850    -0.23200
C4588       C  0.58241103  0.00179172  0.84912142     0.19000
C4589       C  0.58188464  0.99844432  0.88428732     0.16200
C4590       C  0.58670200  0.01043474  0.90862665    -0.18200
C4591       C  0.57533317  0.98298406  0.89480861    -0.20000
C4592       C  0.56820513  0.97085315  0.87098093    -0.12600
C4593       C  0.56800401  0.97392651  0.83608438     0.04100
C4594       C  0.57573584  0.98947170  0.82506171    -0.24700
H4595       H  0.59634078  0.04078038  0.85514499     0.09100
H4596       H  0.58901507  0.02012586  0.81218686     0.12800
H4597       H  0.58557680  0.00757118  0.93554824     0.12700
H4598       H  0.57481049  0.98023199  0.92169225     0.12400
H4599       H  0.56209725  0.95900745  0.88001682     0.13000
H4600       H  0.57524160  0.99193164  0.79828473     0.14900
C4601       C  0.58245759  0.02157394  0.58540310    -0.05100
C4602       C  0.59034269  0.02496003  0.61699212    -0.05000
C4603       C  0.58667182  0.01314878  0.64091314    -0.23200
C4604       C  0.57487448  0.99781124  0.63384752     0.19000
C4605       C  0.56729781  0.99430238  0.60168856     0.16200
C4606       C  0.57128622  0.00605526  0.57771712    -0.18200
C4607       C  0.55521508  0.97922980  0.59448058    -0.20000
C4608       C  0.55000324  0.96789475  0.61959033    -0.12600
C4609       C  0.55698870  0.97125315  0.65211582     0.04100
C4610       C  0.56984392  0.98611445  0.65884137    -0.24700
H4611       H  0.59906006  0.03676773  0.62353328     0.09100
H4612       H  0.59266113  0.01610849  0.66536541     0.12800
H4613       H  0.56505986  0.00313984  0.55353200     0.12700
H4614       H  0.54928546  0.97639174  0.56994791     0.12400
H4615       H  0.54001078  0.95659226  0.61406813     0.13000
H4616       H  0.57505259  0.98888453  0.68415667     0.14900
C4617       C  0.47949426  0.55883036  0.91041315    -0.05100
C4618       C  0.47992236  0.56402656  0.87698055    -0.05000
C4619       C  0.46781810  0.55527334  0.85390591    -0.23200
C4620       C  0.45533258  0.54081137  0.86346126     0.19000
C4621       C  0.45431791  0.53575357  0.89750408     0.16200
C4622       C  0.46628429  0.54500436  0.92111465    -0.18200
C4623       C  0.44209237  0.52095324  0.90636395    -0.20000
C4624       C  0.43200816  0.51071406  0.88106361    -0.12600
C4625       C  0.43371759  0.51522879  0.84659585     0.04100
C4626       C  0.44475635  0.53075395  0.83864710    -0.24700
H4627       H  0.49006052  0.57450136  0.86817210     0.09100
H4628       H  0.46878523  0.55930433  0.82787717     0.12800
H4629       H  0.46606033  0.54073867  0.94665373     0.12700
H4630       H  0.44103041  0.51687765  0.93236683     0.12400
H4631       H  0.42367944  0.49890994  0.88811102     0.13000
H4632       H  0.44625129  0.53457033  0.81232953     0.14900
C4633       C  0.48041268  0.54845235  0.56799222    -0.05100
C4634       C  0.48121008  0.55631256  0.59841746    -0.05000
C4635       C  0.47071476  0.54857576  0.62483191    -0.23200
C4636       C  0.45916018  0.53291875  0.62095346     0.19000
C4637       C  0.45774865  0.52517939  0.58963680     0.16200
C4638       C  0.46846794  0.53296755  0.56343496    -0.18200
C4639       C  0.44610742  0.50957889  0.58569525    -0.20000
C4640       C  0.43673340  0.50137575  0.61337850    -0.12600
C4641       C  0.43882628  0.50863608  0.64546338     0.04100
C4642       C  0.44960054  0.52465280  0.64849390    -0.24700
H4643       H  0.49040896  0.56820300  0.60236383     0.09100
H4644       H  0.47193974  0.55468889  0.64866510     0.12800
H4645       H  0.46781648  0.52688649  0.53986357     0.12700
H4646       H  0.44474240  0.50352427  0.56170692     0.12400
H4647       H  0.42854957  0.48909757  0.61021211     0.13000
H4648       H  0.45132518  0.53048214  0.67295390     0.14900
C4649       C  0.55927583  0.57033928  0.57254624    -0.05100
C4650       C  0.56916705  0.58212953  0.59554137    -0.05000
C4651       C  0.57773205  0.57929843  0.62040697    -0.23200
C4652       C  0.57677879  0.56473285  0.62219598     0.19000
C4653       C  0.56749097  0.55321858  0.59779172     0.16200
C4654       C  0.55881395  0.55603899  0.57359942    -0.18200
C4655       C  0.56655993  0.53877795  0.59843772    -0.20000
C4656       C  0.57390670  0.53530561  0.62431988    -0.12600
C4657       C  0.58234994  0.54610881  0.65037769     0.04100
C4658       C  0.58427110  0.56112580  0.64855681    -0.24700
H4659       H  0.56989720  0.59332108  0.59498241     0.09100
H4660       H  0.58487247  0.58839100  0.63856154     0.12800
H4661       H  0.55153665  0.54694530  0.55550623     0.12700
H4662       H  0.55961824  0.52990435  0.57965535     0.12400
H4663       H  0.57222550  0.52370607  0.62510457     0.13000
H4664       H  0.59055794  0.56950150  0.66870469     0.14900
C4665       C  0.56875920  0.58475555  0.89742095    -0.05100
C4666       C  0.56646188  0.58548385  0.86213284    -0.05000
C4667       C  0.57446512  0.58167310  0.83832831    -0.23200
C4668       C  0.58457333  0.57663371  0.84942203     0.19000
C4669       C  0.58759732  0.57663351  0.88478227     0.16200
C4670       C  0.57996458  0.58107075  0.90850191    -0.18200
C4671       C  0.59713714  0.57090824  0.89596539    -0.20000
C4672       C  0.60237867  0.56389295  0.87270605    -0.12600
C4673       C  0.59863925  0.56301486  0.83779426     0.04100
C4674       C  0.59054557  0.57027159  0.82604500    -0.24700
H4675       H  0.55792741  0.58831239  0.85294306     0.09100
H4676       H  0.57200753  0.58174236  0.81132181     0.12800
H4677       H  0.58170944  0.58027238  0.93564099     0.12700
H4678       H  0.59961534  0.57084876  0.92296059     0.12400
H4679       H  0.60858169  0.55834674  0.88224072     0.13000
H4680       H  0.58738841  0.56941754  0.79920829     0.14900
C4681       C  0.51598902  0.47117129  0.45745734    -0.05100
C4682       C  0.53408562  0.48300143  0.96903659    -0.05000
C4683       C  0.53499566  0.49831800  0.46568682    -0.23200
C4684       C  0.52510322  0.50229571  0.44852512     0.19000
C4685       C  0.51136226  0.49063323  0.43258373     0.16200
C4686       C  0.50707716  0.47515823  0.43666719    -0.18200
C4687       C  0.50132917  0.49449461  0.41577151    -0.20000
C4688       C  0.50407934  0.50960794  0.41771215    -0.12600
C4689       C  0.51691759  0.52084887  0.43618052     0.04100
C4690       C  0.52786409  0.51744398  0.44988642    -0.24700
H4691       H  0.53969944  0.47856325  0.98548958     0.09100
H4692       H  0.54827821  0.50625121  0.98795625     0.12800
H4693       H  0.49607044  0.46614256  0.42620517     0.12700
H4694       H  0.49082076  0.48564393  0.40327721     0.12400
H4695       H  0.49560312  0.51222826  0.40714622     0.13000
H4696       H  0.53780785  0.52629708  0.46405154     0.14900
C4697       C  0.58051551  0.75751813  0.82042539    -0.05100
C4698       C  0.58334172  0.75626518  0.78570767    -0.05000
C4699       C  0.58245510  0.76614344  0.76146610    -0.23200
C4700       C  0.57899431  0.77761089  0.77168901     0.19000
C4701       C  0.57502346  0.77817263  0.80608104     0.16200
C4702       C  0.57536527  0.76785432  0.82988091    -0.18200
C4703       C  0.57221683  0.78998329  0.81689449    -0.20000
C4704       C  0.57459648  0.80188976  0.79459598    -0.12600
C4705       C  0.57913618  0.80182898  0.76072891     0.04100
C4706       C  0.58065892  0.78927199  0.74894983    -0.24700
H4707       H  0.58750562  0.74859565  0.77774641     0.09100
H4708       H  0.58553181  0.76552802  0.73520134     0.12800
H4709       H  0.57315715  0.76897813  0.85657414     0.12700
H4710       H  0.56918679  0.79058197  0.84321046     0.12400
H4711       H  0.57351991  0.81150835  0.80417912     0.13000
H4712       H  0.58452997  0.78935626  0.72303466     0.14900
C4713       C  0.58039882  0.76093296  0.51090080    -0.05100
C4714       C  0.57933614  0.75651169  0.54529782    -0.05000
C4715       C  0.57867445  0.76583828  0.57139245    -0.23200
C4716       C  0.57927681  0.77984296  0.56353941     0.19000
C4717       C  0.57907594  0.78378017  0.52898548     0.16200
C4718       C  0.57928193  0.77412510  0.50293849    -0.18200
C4719       C  0.58010422  0.79799466  0.52108761    -0.20000
C4720       C  0.58267218  0.80877801  0.54705746    -0.12600
C4721       C  0.58371652  0.80526131  0.58125198     0.04100
C4722       C  0.58137547  0.79054569  0.58948278    -0.24700
H4723       H  0.58442386  0.75009640  0.04855788     0.09100
H4724       H  0.57871665  0.76260296  0.59778200     0.12800
H4725       H  0.57996613  0.77765863  0.47653138     0.12700
H4726       H  0.57995495  0.80118825  0.49470681     0.12400
H4727       H  0.58469543  0.82015484  0.54032334     0.13000
H4728       H  0.58249056  0.78795517  0.61589210     0.14900
C4729       C  0.57224609  0.68555440  0.92548884    -0.05100
C4730       C  0.57658791  0.67652339  0.90586345    -0.05000
C4731       C  0.57114790  0.66095324  0.91389369    -0.23200
C4732       C  0.56092363  0.65391099  0.94128752     0.19000
C4733       C  0.55555823  0.66247769  0.95977689     0.16200
C4734       C  0.56141140  0.67830079  0.95210584    -0.18200
C4735       C  0.54472502  0.65513023  0.98611355    -0.20000
C4736       C  0.53953805  0.63960314  0.99447943    -0.12600
C4737       C  0.54542356  0.63124114  0.97744769     0.04100
C4738       C  0.55609732  0.63850708  0.95068197    -0.24700
H4739       H  0.58496008  0.68176704  0.88548452     0.09100
H4740       H  0.57522555  0.65451165  0.89910934     0.12800
H4741       H  0.55787190  0.68506713  0.96738172     0.12700
H4742       H  0.54029421  0.66140794  0.00032991     0.12400
H4743       H  0.53117324  0.63421988  0.01481387     0.13000
H4744       H  0.56044376  0.63206147  0.93678266     0.14900
C4745       C  0.70177249  0.85225660  0.89571862    -0.05100
C4746       C  0.70616617  0.84100807  0.89931813    -0.05000
C4747       C  0.69488744  0.82525675  0.89799315    -0.23200
C4748       C  0.67915294  0.82069945  0.89356374     0.19000
C4749       C  0.67492637  0.83202231  0.88748343     0.16200
C4750       C  0.68628316  0.84764164  0.88779445    -0.18200
C4751       C  0.65929006  0.82767283  0.88347223    -0.20000
C4752       C  0.64777660  0.81228023  0.88767976    -0.12600
C4753       C  0.65174880  0.80098151  0.89544102     0.04100
C4754       C  0.66750604  0.80516954  0.89704021    -0.24700
H4755       H  0.71811082  0.84436343  0.90497200     0.09100
H4756       H  0.69834885  0.81670212  0.90225490     0.12800
H4757       H  0.68283783  0.85625674  0.88409932     0.12700
H4758       H  0.65593423  0.83626531  0.87855171     0.12400
H4759       H  0.63573751  0.80930728  0.88572323     0.13000
H4760       H  0.67070749  0.79651265  0.90259599     0.14900
C4761       C  0.64398901  0.73850748  0.82652379    -0.05100
C4762       C  0.64078068  0.73703587  0.79119659    -0.05000
C4763       C  0.65284007  0.74157678  0.76730451    -0.23200
C4764       C  0.66837754  0.74792552  0.77830237     0.19000
C4765       C  0.67155632  0.74861214  0.81366508     0.16200
C4766       C  0.65938669  0.74359040  0.83730643    -0.18200
C4767       C  0.68700300  0.75538130  0.82512401    -0.20000
C4768       C  0.69928488  0.76240759  0.80202445    -0.12600
C4769       C  0.69643998  0.76242835  0.76684310     0.04100
C4770       C  0.68086485  0.75457776  0.75494438    -0.24700
H4771       H  0.62912144  0.73322561  0.78201079     0.09100
H4772       H  0.65011957  0.74090235  0.74029996     0.12800
H4773       H  0.66217039  0.74476880  0.86436215     0.12700
H4774       H  0.68962501  0.75603251  0.85218638     0.12400
H4775       H  0.71108620  0.76849770  0.81187705     0.13000
H4776       H  0.67847970  0.75484749  0.72798560     0.14900
C4777       C  0.63900832  0.74116567  0.52291863    -0.05100
C4778       C  0.63456746  0.74195388  0.55659619    -0.05000
C4779       C  0.64574300  0.74822722  0.58276176    -0.23200
C4780       C  0.66149351  0.75391138  0.57548380     0.19000
C4781       C  0.66586127  0.75194345  0.54233665     0.16200
C4782       C  0.65454950  0.74532728  0.51650595    -0.18200
C4783       C  0.68161709  0.75763970  0.53495577    -0.20000
C4784       C  0.69305035  0.76600857  0.55970179    -0.12600
C4785       C  0.68881162  0.76876554  0.59193919     0.04100
C4786       C  0.67303867  0.76233680  0.60009523    -0.24700
H4787       H  0.62271127  0.73884008  0.56220937     0.09100
H4788       H  0.64220002  0.74948612  0.60820658     0.12800
H4789       H  0.65833186  0.74479717  0.99351089     0.12700
H4790       H  0.68513030  0.75615821  0.50965676     0.12400
H4791       H  0.70518912  0.77088301  0.55326408     0.13000
H4792       H  0.66982423  0.76442043  0.62522793     0.14900
C4793       C  0.14783074  0.79886057  0.61594448    -0.05100
C4794       C  0.13595528  0.80075455  0.63007952    -0.05000
C4795       C  0.13763752  0.81548213  0.63261181    -0.23200
C4796       C  0.15148836  0.82851065  0.62215535     0.19000
C4797       C  0.16294181  0.82646918  0.60546586     0.16200
C4798       C  0.16083182  0.81156368  0.60167303    -0.18200
C4799       C  0.17700407  0.83944069  0.59605265    -0.20000
C4800       C  0.18029011  0.85423431  0.60585477    -0.12600
C4801       C  0.16942526  0.85633370  0.62451473     0.04100
C4802       C  0.15468671  0.84349327  0.63092242    -0.24700
H4803       H  0.12596198  0.79101282  0.64165791     0.09100
H4804       H  0.12870629  0.81679424  0.64530502     0.12800
H4805       H  0.17013004  0.81009634  0.59146346     0.12700
H4806       H  0.18583460  0.83809609  0.58296088     0.12400
H4807       H  0.19160321  0.86401389  0.59988420     0.13000
H4808       H  0.14620304  0.84501331  0.64510022     0.14900
C4809       C  0.12546822  0.76273458  0.76777776    -0.05100
C4810       C  0.13686107  0.77365042  0.79017233    -0.05000
C4811       C  0.13282082  0.78015754  0.81680582    -0.23200
C4812       C  0.11729196  0.77589422  0.82164998     0.19000
C4813       C  0.10555206  0.76445116  0.80039538     0.16200
C4814       C  0.10971880  0.75783364  0.77351976    -0.18200
C4815       C  0.08998157  0.76024758  0.80594189    -0.20000
C4816       C  0.08618616  0.76754426  0.83183189    -0.12600
C4817       C  0.09794861  0.77927499  0.85210836     0.04100
C4818       C  0.11342991  0.78320093  0.84706911    -0.24700
H4819       H  0.14905374  0.77755400  0.78644567     0.09100
H4820       H  0.14191705  0.78883578  0.83310931     0.12800
H4821       H  0.10086474  0.74952309  0.75621331     0.12700
H4822       H  0.08078453  0.75147445  0.79002601     0.12400
H4823       H  0.07415797  0.76431446  0.83544647     0.13000
H4824       H  0.12258103  0.79207079  0.86298198     0.14900
C4825       C  0.10134381  0.73735097  0.58216276    -0.05100
C4826       C  0.10056640  0.73368344  0.54712220    -0.05000
C4827       C  0.09325593  0.73861634  0.52370595    -0.23200
C4828       C  0.08701505  0.74777401  0.53470026     0.19000
C4829       C  0.08697827  0.75077355  0.57007141     0.16200
C4830       C  0.09373959  0.74519819  0.59359226    -0.18200
C4831       C  0.08133891  0.76038710  0.58116450    -0.20000
C4832       C  0.07680596  0.76783422  0.55746835    -0.12600
C4833       C  0.07743568  0.76561336  0.52205143     0.04100
C4834       C  0.08195811  0.75497398  0.51089918    -0.24700
H4835       H  0.10637183  0.72772408  0.53756176     0.09100
H4836       H  0.09337787  0.73611332  0.49676134     0.12800
H4837       H  0.09447748  0.74837508  0.62037269     0.12700
H4838       H  0.08125577  0.76285756  0.60814736     0.12400
H4839       H  0.07349226  0.77597506  0.56691306     0.13000
H4840       H  0.08537064  0.75689210  0.99276680     0.14900
C4841       C  0.19747316  0.78125995  0.73441454    -0.05100
C4842       C  0.20890293  0.79601608  0.72317055    -0.05000
C4843       C  0.22042913  0.80657632  0.74553912    -0.23200
C4844       C  0.22051296  0.80276063  0.77995264     0.19000
C4845       C  0.20946233  0.78770304  0.79120088     0.16200
C4846       C  0.19823216  0.77692130  0.76816718    -0.18200
C4847       C  0.20912335  0.78406109  0.82584809    -0.20000
C4848       C  0.21887771  0.79545078  0.84939827    -0.12600
C4849       C  0.22948908  0.81062763  0.83879412     0.04100
C4850       C  0.23069637  0.81405180  0.80372932    -0.24700
H4851       H  0.20853166  0.79961238  0.69725760     0.09100
H4852       H  0.22876417  0.81801525  0.73633755     0.12800
H4853       H  0.18931943  0.76568400  0.77724153     0.12700
H4854       H  0.20075626  0.77263028  0.83504094     0.12400
H4855       H  0.21769897  0.79255840  0.87630556     0.13000
H4856       H  0.23860311  0.82578550  0.79537442     0.14900
C4857       C  0.23310480  0.80565882  0.52196800    -0.05100
C4858       C  0.23687338  0.80759209  0.55699832    -0.05000
C4859       C  0.22790685  0.79571688  0.58011788    -0.23200
C4860       C  0.21486656  0.78190504  0.56853818     0.19000
C4861       C  0.21199164  0.77930748  0.53303032     0.16200
C4862       C  0.22139429  0.79100177  0.51001720    -0.18200
C4863       C  0.19870530  0.76583664  0.52122397    -0.20000
C4864       C  0.18733866  0.75609851  0.54430397    -0.12600
C4865       C  0.18941870  0.75931755  0.57949574     0.04100
C4866       C  0.20372303  0.77154068  0.59169799    -0.24700
H4867       H  0.24592118  0.81867338  0.56686201     0.09100
H4868       H  0.23039720  0.79784747  0.60722746     0.12800
H4869       H  0.22182663  0.79181480  0.98388849     0.12700
H4870       H  0.19640331  0.76363308  0.49406766     0.12400
H4871       H  0.17636821  0.74678873  0.53451650     0.13000
H4872       H  0.20525455  0.77422008  0.61883907     0.14900
C4873       C  0.10090642  0.63997259  0.74635871    -0.05100
C4874       C  0.09936220  0.64956814  0.77057556    -0.05000
C4875       C  0.10577611  0.66548293  0.76470132    -0.23200
C4876       C  0.11415951  0.67225268  0.73474426     0.19000
C4877       C  0.11672258  0.66296918  0.71124649     0.16200
C4878       C  0.10995153  0.64688823  0.71697627    -0.18200
C4879       C  0.12567898  0.66988415  0.68199206    -0.20000
C4880       C  0.13166437  0.68570429  0.67563591    -0.12600
C4881       C  0.12848374  0.69484943  0.69784302     0.04100
C4882       C  0.11979205  0.68805769  0.72758299    -0.24700
H4883       H  0.09246125  0.64461816  0.79330504     0.09100
H4884       H  0.10386454  0.67243511  0.78326941     0.12800
H4885       H  0.11138748  0.63969958  0.69816267     0.12700
H4886       H  0.12793036  0.66302510  0.66383514     0.12400
H4887       H  0.13839814  0.69071816  0.65272291     0.13000
H4888       H  0.11747805  0.69508829  0.74512878     0.14900
C4889       C  0.03027128  0.58640452  0.85226754    -0.05100
C4890       C  0.03345110  0.58474917  0.88658035    -0.05000
C4891       C  0.02152167  0.57877172  0.91108591    -0.23200
C4892       C  0.00609339  0.57409058  0.90168867     0.19000
C4893       C  0.00293396  0.57641657  0.86771189     0.16200
C4894       C  0.01501365  0.58282922  0.84361186    -0.18200
C4895       C  0.98753634  0.57127608  0.85761403    -0.20000
C4896       C  0.97525585  0.56305545  0.88027952    -0.12600
C4897       C  0.97807621  0.56026186  0.91391516     0.04100
C4898       C  0.99363752  0.56625166  0.92486235    -0.24700
H4899       H  0.04495853  0.58722449  0.89410402     0.09100
H4900       H  0.02422545  0.57708597  0.93697939     0.12800
H4901       H  0.01222040  0.58394727  0.81736896     0.12700
H4902       H  0.98490317  0.57288323  0.83159315     0.12400
H4903       H  0.96342872  0.55831043  0.87109951     0.13000
H4904       H  0.99593188  0.56373821  0.95042768     0.14900
C4905       C  0.02937178  0.58126070  0.65471570    -0.05100
C4906       C  0.01766932  0.58512017  0.65763349    -0.05000
C4907       C  0.00462104  0.57824482  0.63601116    -0.23200
C4908       C  0.00274146  0.56687909  0.61207963     0.19000
C4909       C  0.01467762  0.56322717  0.60849805     0.16200
C4910       C  0.02810970  0.57078629  0.62907941    -0.18200
C4911       C  0.01256548  0.55136353  0.58596618    -0.20000
C4912       C  0.99865119  0.54292906  0.56776077    -0.12600
C4913       C  0.98663971  0.54637542  0.57097736     0.04100
C4914       C  0.98889151  0.55861821  0.59280420    -0.24700
H4915       H  0.01826369  0.59287005  0.67784968     0.09100
H4916       H  0.99560153  0.58116724  0.63934769     0.12800
H4917       H  0.03683353  0.56734993  0.62751891     0.12700
H4918       H  0.02153385  0.54833943  0.58302784     0.12400
H4919       H  0.99733933  0.53371558  0.55081817     0.13000
H4920       H  0.97971391  0.56135683  0.59562131     0.14900
C4921       C  0.01793095  0.52702120  0.77330888    -0.05100
C4922       C  0.00268467  0.52428429  0.77045166    -0.05000
C4923       C  0.99007672  0.50929144  0.77263238    -0.23200
C4924       C  0.99255276  0.49684074  0.77758960     0.19000
C4925       C  0.00781898  0.49955705  0.78205219     0.16200
C4926       C  0.02041967  0.51465755  0.78012353    -0.18200
C4927       C  0.01025426  0.48706223  0.78692202    -0.20000
C4928       C  0.99772823  0.47193770  0.78543623    -0.12600
C4929       C  0.98261028  0.46914627  0.77932108     0.04100
C4930       C  0.98004908  0.48167811  0.77662818    -0.24700
H4931       H  0.00048714  0.53367118  0.76545699     0.09100
H4932       H  0.97843139  0.50738842  0.76937462     0.12800
H4933       H  0.03214434  0.51669151  0.78276768     0.12700
H4934       H  0.02187092  0.48895813  0.79069537     0.12400
H4935       H  0.99995312  0.46243293  0.78803070     0.13000
H4936       H  0.96841567  0.47966079  0.77224453     0.14900
C4937       C  0.23207584  0.41830437  0.75691659    -0.05100
C4938       C  0.23750147  0.42148313  0.79083484    -0.05000
C4939       C  0.22905774  0.42405170  0.81605449    -0.23200
C4940       C  0.21485638  0.42315581  0.80794586     0.19000
C4941       C  0.20969126  0.42087163  0.77369933     0.16200
C4942       C  0.21848263  0.41877973  0.74833086    -0.18200
C4943       C  0.19528624  0.41962465  0.76582938    -0.20000
C4944       C  0.18545732  0.41921697  0.79202301    -0.12600
C4945       C  0.19002465  0.42035707  0.82640855     0.04100
C4946       C  0.20519251  0.42328816  0.83386256    -0.24700
H4947       H  0.24793524  0.42136599  0.79815870     0.09100
H4948       H  0.23321665  0.42590734  0.84225666     0.12800
H4949       H  0.21410986  0.41645757  0.72227527     0.12700
H4950       H  0.19119204  0.41796431  0.73959684     0.12400
H4951       H  0.17389946  0.41689695  0.78550377     0.13000
H4952       H  0.20899876  0.42434528  0.86024998     0.14900
C4953       C  0.19194298  0.41703199  0.51924458    -0.05100
C4954       C  0.19132793  0.41933423  0.55447921    -0.05000
C4955       C  0.20324895  0.42080792  0.57620008    -0.23200
C4956       C  0.21570110  0.41949240  0.56315674     0.19000
C4957       C  0.21638286  0.41705205  0.52784813     0.16200
C4958       C  0.20470858  0.41616960  0.50611791    -0.18200
C4959       C  0.22838054  0.41491599  0.51507182    -0.20000
C4960       C  0.23943655  0.41483750  0.53728935    -0.12600
C4961       C  0.23896527  0.41738055  0.57249436     0.04100
C4962       C  0.22712934  0.41995053  0.58503461    -0.24700
H4963       H  0.18158526  0.41984443  0.56521103     0.09100
H4964       H  0.20250210  0.42252884  0.60335452     0.12800
H4965       H  0.20971181  0.41946356  0.97845906     0.12700
H4966       H  0.23380293  0.41969651  0.99127003     0.12400
H4967       H  0.24818021  0.41254832  0.52705397     0.13000
H4968       H  0.22626931  0.42149660  0.61224071     0.14900
C4969       C  0.08826171  0.31010527  0.75670232    -0.05100
C4970       C  0.08409616  0.30586624  0.79090351    -0.05000
C4971       C  0.08856402  0.31723605  0.81655325    -0.23200
C4972       C  0.09740754  0.33307293  0.80854415     0.19000
C4973       C  0.10099590  0.33754922  0.77413202     0.16200
C4974       C  0.09629718  0.32607063  0.74846529    -0.18200
C4975       C  0.10993925  0.35341236  0.76621126    -0.20000
C4976       C  0.11621473  0.36466460  0.79234824    -0.12600
C4977       C  0.11358421  0.36023313  0.82678101     0.04100
C4978       C  0.10354360  0.34443490  0.83453403    -0.24700
H4979       H  0.07790215  0.29376130  0.79805104     0.09100
H4980       H  0.08564056  0.31362342  0.84286223     0.12800
H4981       H  0.09955144  0.32963021  0.72222499     0.12700
H4982       H  0.11273179  0.35705535  0.73988551     0.12400
H4983       H  0.12396938  0.37667162  0.78568959     0.13000
H4984       H  0.10134654  0.34085072  0.86102479     0.14900
C4985       C  0.10814320  0.35284839  0.51293914    -0.05100
C4986       C  0.10685922  0.35582269  0.54752782    -0.05000
C4987       C  0.09868188  0.34352274  0.57008677    -0.23200
C4988       C  0.09198727  0.32810674  0.55844051     0.19000
C4989       C  0.09252632  0.32501658  0.52341278     0.16200
C4990       C  0.10019046  0.33738153  0.50080335    -0.18200
C4991       C  0.08644411  0.30965347  0.51192979    -0.20000
C4992       C  0.08089568  0.29751552  0.53537258    -0.12600
C4993       C  0.08084683  0.30052716  0.57040810     0.04100
C4994       C  0.08576934  0.31580380  0.58155988    -0.24700
H4995       H  0.11283592  0.36758181  0.55749101     0.09100
H4996       H  0.09834695  0.34605731  0.59693476     0.12800
H4997       H  0.10095700  0.33485192  0.47413032     0.12700
H4998       H  0.08680696  0.30713534  0.48508388     0.12400
H4999       H  0.07721796  0.28589083  0.52627524     0.13000
H5000       H  0.08601372  0.31835968  0.60860584     0.14900
C5001       C  0.17212174  0.35837582  0.93548257    -0.05100
C5002       C  0.18732419  0.36258566  0.92614896    -0.05000
C5003       C  0.19207264  0.35163460  0.92702106    -0.23200
C5004       C  0.18164492  0.33644241  0.93731177     0.19000
C5005       C  0.16656497  0.33242643  0.94825815     0.16200
C5006       C  0.16197016  0.34345531  0.94754474    -0.18200
C5007       C  0.15606223  0.31727128  0.95834491    -0.20000
C5008       C  0.16020273  0.30594015  0.95606406    -0.12600
C5009       C  0.17496324  0.30970553  0.94414850     0.04100
C5010       C  0.18580556  0.32505224  0.93563889    -0.24700
H5011       H  0.19529756  0.37412848  0.91692045     0.09100
H5012       H  0.20368828  0.35489986  0.91870458     0.12800
H5013       H  0.15029315  0.34027463  0.95531961     0.12700
H5014       H  0.14450869  0.31408750  0.96698844     0.12400
H5015       H  0.15176063  0.29416986  0.96311059     0.13000
H5016       H  0.19721179  0.32799851  0.92635700     0.14900
C5017       C  0.07916187  0.51643606  0.58209598    -0.05100
C5018       C  0.08579585  0.51574942  0.61326213    -0.05000
C5019       C  0.08866371  0.52663664  0.63927152    -0.23200
C5020       C  0.08513143  0.53846616  0.63418096     0.19000
C5021       C  0.07954306  0.53984857  0.60189319     0.16200
C5022       C  0.07644616  0.52874086  0.57624821    -0.18200
C5023       C  0.07638676  0.55185892  0.59632275    -0.20000
C5024       C  0.07777172  0.56182191  0.62310978    -0.12600
C5025       C  0.08209146  0.55980870  0.65606152     0.04100
C5026       C  0.08623628  0.54838122  0.66120709    -0.24700
H5027       H  0.08792807  0.50630984  0.61815864     0.09100
H5028       H  0.09311457  0.52548237  0.66371165     0.12800
H5029       H  0.07139439  0.52932542  0.55209199     0.12700
H5030       H  0.07221809  0.55314472  0.57163210     0.12400
H5031       H  0.07431947  0.57036917  0.61863715     0.13000
H5032       H  0.08953712  0.54671026  0.68657368     0.14900
C5033       C  0.09110985  0.56544615  0.84558029    -0.05100
C5034       C  0.09148754  0.56863913  0.88076879    -0.05000
C5035       C  0.09201930  0.55854142  0.90509015    -0.23200
C5036       C  0.09177123  0.54488385  0.89458879     0.19000
C5037       C  0.09262072  0.54230024  0.85932619     0.16200
C5038       C  0.09286691  0.55283063  0.83534705    -0.18200
C5039       C  0.09171575  0.52848495  0.84820328    -0.20000
C5040       C  0.08871423  0.51675119  0.87145286    -0.12600
C5041       C  0.08715574  0.51877359  0.90645190     0.04100
C5042       C  0.08940452  0.53318929  0.91819260    -0.24700
H5043       H  0.09013547  0.57820410  0.88951359     0.09100
H5044       H  0.09147784  0.56082580  0.93200193     0.12800
H5045       H  0.09277464  0.55023973  0.80835715     0.12700
H5046       H  0.09229945  0.52632655  0.82122248     0.12400
H5047       H  0.08691263  0.50575253  0.86187131     0.13000
H5048       H  0.08789265  0.53473391  0.94507345     0.14900
C5049       C  0.09934369  0.45765990  0.98726381    -0.05100
C5050       C  0.10624398  0.45476273  0.01547717    -0.05000
C5051       C  0.11542127  0.44785278  0.01099471    -0.23200
C5052       C  0.11777582  0.44357351  0.97815495     0.19000
C5053       C  0.11122236  0.44682581  0.94954233     0.16200
C5054       C  0.10205622  0.45382145  0.95427069    -0.18200
C5055       C  0.11354136  0.44258076  0.91674227    -0.20000
C5056       C  0.12184595  0.43478815  0.91229453    -0.12600
C5057       C  0.12805652  0.43097516  0.94049508     0.04100
C5058       C  0.12613927  0.43569556  0.97349493    -0.24700
H5059       H  0.10413297  0.45741600  0.04111600     0.09100
H5060       H  0.12034202  0.44549148  0.03330571     0.12800
H5061       H  0.09659228  0.45581313  0.93240432     0.12700
H5062       H  0.10865197  0.44501520  0.89447888     0.12400
H5063       H  0.12303838  0.43137099  0.88665754     0.13000
H5064       H  0.13081142  0.43292429  0.99565016     0.14900
C5065       C  0.00721384  0.47224756  0.46196072    -0.05100
C5066       C  0.99571660  0.46460230  0.48672295    -0.05000
C5067       C  0.98196382  0.46490787  0.48524011    -0.23200
C5068       C  0.97977677  0.47329922  0.45953098     0.19000
C5069       C  0.99340766  0.48405532  0.92692881     0.16200
C5070       C  0.00710875  0.48328568  0.92837640    -0.18200
C5071       C  0.99215474  0.49449760  0.90506410    -0.20000
C5072       C  0.98005883  0.49765050  0.90944816    -0.12600
C5073       C  0.96723392  0.48739911  0.44076738     0.04100
C5074       C  0.96783499  0.47662196  0.46254313    -0.24700
H5075       H  0.99771429  0.45899000  0.50818867     0.09100
H5076       H  0.97360745  0.45961527  0.50567504     0.12800
H5077       H  0.01682956  0.49057475  0.91199845     0.12700
H5078       H  0.00118340  0.50115343  0.88666490     0.12400
H5079       H  0.98017796  0.50693659  0.89501760     0.13000
H5080       H  0.96011805  0.47225289  0.48435714     0.14900
C5081       C  0.97139296  0.41169258  0.66187563    -0.05100
C5082       C  0.96625581  0.41039890  0.62785108    -0.05000
C5083       C  0.97690888  0.41556113  0.60078560    -0.23200
C5084       C  0.99292086  0.42210771  0.60721263     0.19000
C5085       C  0.99811784  0.42250595  0.64103888     0.16200
C5086       C  0.98734680  0.41722430  0.66802225    -0.18200
C5087       C  0.01411902  0.42903596  0.64757484    -0.20000
C5088       C  0.02494112  0.43591479  0.62118772    -0.12600
C5089       C  0.01996021  0.43625971  0.58781778     0.04100
C5090       C  0.00389029  0.42900870  0.58079210    -0.24700
H5091       H  0.95412252  0.40626848  0.62228774     0.09100
H5092       H  0.97269180  0.41504795  0.57497627     0.12800
H5093       H  0.99153497  0.41823364  0.69405558     0.12700
H5094       H  0.01830674  0.42940335  0.67335050     0.12400
H5095       H  0.03724247  0.44161038  0.62713943     0.13000
H5096       H  0.99999660  0.42943276  0.55511469     0.14900
C5097       C  0.02318514  0.42888540  0.91105143    -0.05100
C5098       C  0.02487456  0.42522958  0.87727833    -0.05000
C5099       C  0.01181186  0.41701954  0.85618612    -0.23200
C5100       C  0.99700143  0.41313061  0.86810437     0.19000
C5101       C  0.99511413  0.41620437  0.90249442     0.16200
C5102       C  0.00819313  0.42361828  0.92408276    -0.18200
C5103       C  0.98044784  0.41310667  0.91379110    -0.20000
C5104       C  0.96814785  0.40841462  0.89044026    -0.12600
C5105       C  0.97024731  0.40637169  0.85567871     0.04100
C5106       C  0.98441553  0.40770094  0.84530574    -0.24700
H5107       H  0.03633974  0.42929967  0.86683627     0.09100
H5108       H  0.01343222  0.41474966  0.82984606     0.12800
H5109       H  0.00688491  0.42673474  0.94996496     0.12700
H5110       H  0.97880628  0.41539615  0.94010214     0.12400
H5111       H  0.95739690  0.40747654  0.89914123     0.13000
H5112       H  0.98620186  0.40605604  0.81863411     0.14900
loop_ 
_geom_bond_atom_site_label_1 
_geom_bond_atom_site_label_2 
_geom_bond_distance 
_geom_bond_site_symmetry_2 
_ccdc_geom_bond_type 
Zn1           O6   2.014       .  S
Zn1          O17   2.026       .  S
Zn1        O2566   2.065       .  S
Zn1        O2561   1.937       .  S
Zn2           O7   2.008       .  S
Zn2           O9   2.009       .  S
Zn2          O13   2.005       .  S
Zn2        O2561   1.951       .  S
Zn3           O8   2.000       .  S
Zn3          O11   1.982   1_554  S
Zn3          O14   2.016       .  S
Zn3           O5   1.920   1_554  S
Zn4          O15   2.085       .  S
Zn4          O16   2.083       .  S
Zn4        O2568   2.058       .  S
Zn4        O2561   1.950       .  S
O5        Zn2557   1.943       .  S
O5        Zn2558   1.959       .  S
O5        Zn2560   1.950       .  S
O6           C18   1.273       .  A
O7         C2575   1.270       .  A
O8           C20   1.270       .  A
O9           C18   1.273       .  A
O10       Zn2557   2.055   1_554  S
O10          C20   1.277       .  A
O11          C19   1.271       .  A
O12       Zn2560   2.072   1_554  S
O12          C21   1.282       .  A
O13          C22   1.272       .  A
O14          C21   1.275       .  A
O15          C22   1.280       .  A
O16          C23   1.286       .  A
O17          C23   1.279       .  A
C18        C2541   1.471       .  S
C19        O2563   1.270       .  A
C19        C2509   1.463       .  S
C20        C2533   1.476       .  S
C21        C2461   1.478       .  S
C22        C2485   1.483       .  S
C23        C2493   1.482       .  S
Zn24         O29   1.945       .  S
Zn24         O33   1.967       .  S
Zn24         O40   1.971       .  S
Zn24         O28   1.911       .  S
Zn25         O30   2.096       .  S
Zn25         O32   2.062       .  S
Zn25         O36   2.048       .  S
Zn25         O28   1.969       .  S
Zn26         O31   2.002       .  S
Zn26         O34   1.958       .  S
Zn26         O37   1.928       .  S
Zn26         O28   1.922       .  S
Zn27         O35   2.115       .  S
Zn27         O38   2.079       .  S
Zn27         O39   2.101       .  S
Zn27         O28   1.964       .  S
O29          C41   1.265       .  A
O30          C42   1.280       .  A
O31          C43   1.269       .  A
O32          C41   1.278       .  A
O33          C43   1.269       .  A
O34          C42   1.264       .  A
O35          C44   1.285       .  A
O36          C45   1.283       .  A
O37          C44   1.265       .  A
O38          C45   1.289       .  A
O39          C46   1.282       .  A
O40          C46   1.268       .  A
C41        C4985   1.480       .  S
C42        C4953   1.486       .  S
C43        C2445   1.467       .  S
C44        C2389   1.488       .  S
C45        C2501   1.495       .  S
C46        C2421   1.491       .  S
Zn47         O52   1.966       .  S
Zn47         O56   2.002       .  S
Zn47         O63   1.966       .  S
Zn47         O51   1.931       .  S
Zn48         O53   2.082       .  S
Zn48         O55   2.104       .  S
Zn48         O59   2.102       .  S
Zn48         O51   1.975       .  S
Zn49         O54   2.063       .  S
Zn49         O57   2.027       .  S
Zn49         O60   2.045       .  S
Zn49         O51   1.966       .  S
Zn50         O58   1.966       .  S
Zn50         O61   1.974       .  S
Zn50         O62   1.979       .  S
Zn50         O51   1.949       .  S
O52          C64   1.269       .  A
O53          C65   1.288       .  A
O54          C66   1.278       .  A
O55          C64   1.284       .  A
O56          C66   1.270       .  A
O57          C65   1.281       .  A
O58          C67   1.266       .  A
O59          C68   1.282       .  A
O60          C67   1.275       .  A
O61          C68   1.267       .  A
O62          C69   1.268       .  A
O63          C69   1.268       .  A
C64        C2477   1.492       .  S
C65        C2317   1.489       .  S
C66        C2469   1.492       .  S
C67        C2349   1.467       .  S
C68        C2333   1.498       .  S
C69        C2365   1.462       .  S
Zn70         O75   2.077       .  S
Zn70         O79   2.074       .  S
Zn70         O86   2.078       .  S
Zn70         O74   1.948       .  S
Zn71         O76   1.972       .  S
Zn71         O78   1.976       .  S
Zn71         O82   1.979       .  S
Zn71         O74   1.882       .  S
Zn72         O77   1.993       .  S
Zn72         O80   2.004       .  S
Zn72         O83   2.013       .  S
Zn72         O74   1.922       .  S
Zn73         O81   2.085       .  S
Zn73         O84   2.049       .  S
Zn73         O85   2.044       .  S
Zn73         O74   1.930       .  S
O75          C87   1.280       .  A
O76          C88   1.267       .  A
O77          C89   1.273       .  A
O78          C87   1.268       .  A
O79          C89   1.281       .  A
O80          C88   1.270       .  A
O81          C90   1.282       .  A
O82          C91   1.269       .  A
O83          C90   1.275       .  A
O84          C91   1.276       .  A
O85          C92   1.283       .  A
O86          C92   1.287       .  A
C87        C2285   1.474       .  S
C88        C2237   1.457       .  S
C89        C2309   1.477       .  S
C90        C2269   1.489       .  S
C91        C2253   1.477       .  S
C92        C2325   1.485       .  S
Zn93         O98   1.982       .  S
Zn93        O102   1.967       .  S
Zn93        O109   1.970       .  S
Zn93         O97   1.936       .  S
Zn94         O99   2.032       .  S
Zn94        O101   2.069       .  S
Zn94        O105   2.063       .  S
Zn94         O97   1.983       .  S
Zn95        O100   2.116       .  S
Zn95        O103   2.085       .  S
Zn95        O106   2.103       .  S
Zn95         O97   1.988       .  S
Zn96        O104   1.973       .  S
Zn96        O107   1.963       .  S
Zn96        O108   1.980       .  S
Zn96         O97   1.946       .  S
O98         C110   1.268       .  A
O99         C111   1.281       .  A
O100        C112   1.285       .  A
O101        C110   1.278       .  A
O102        C112   1.268       .  A
O103        C111   1.289       .  A
O104        C113   1.267       .  A
O105        C114   1.277       .  A
O106        C113   1.281       .  A
O107        C114   1.267       .  A
O108        C115   1.267       .  A
O109        C115   1.268       .  A
C110       C4713   1.489       .  S
C111       C2173   1.491       .  S
C112       C2141   1.494       .  S
C113       C2205   1.497       .  S
C114       C4777   1.481       .  S
C115       C2197   1.465       .  S
Zn116       O121   2.059       .  S
Zn116       O125   2.072       .  S
Zn116      O2688   2.052       .  S
Zn116      O2676   1.935       .  S
Zn117       O122   2.013       .  S
Zn117       O124   2.017       .  S
Zn117       O128   2.002       .  S
Zn117      O2676   1.952       .  S
Zn118       O123   2.027       .  S
Zn118       O126   2.017       .  S
Zn118      O2685   2.076       .  S
Zn118      O2676   1.933       .  S
Zn119       O127   1.992       .  S
Zn119       O130   2.004   1_554  S
Zn119       O131   2.017       .  S
Zn119       O120   1.901   1_554  S
O120      Zn2672   1.935       .  S
O120      Zn2673   1.933       .  S
O120      Zn2674   1.935       .  S
O121        C133   1.276       .  A
O122        C134   1.275       .  A
O123        C135   1.280       .  A
O124        C133   1.274       .  A
O125        C135   1.284       .  A
O126        C134   1.273       .  A
O127        C136   1.272       .  A
O128       C2693   1.269       .  A
O129      Zn2674   2.089   1_554  S
O129        C136   1.282       .  A
O130        C137   1.273       .  A
O131        C138   1.276       .  A
O132      Zn2672   2.068   1_554  S
O132        C138   1.282       .  A
C133       C2061   1.481       .  S
C134       C2109   1.476       .  S
C135       C2181   1.482       .  S
C136       C2093   1.484       .  S
C137       O2684   1.269       .  A
C137       C2133   1.459       .  S
C138       C2077   1.480       .  S
Zn139       O144   2.057       .  S
Zn139       O148   2.033       .  S
Zn139       O155   2.023       .  S
Zn139       O143   1.938       .  S
Zn140       O145   1.980       .  S
Zn140       O147   2.012       .  S
Zn140       O151   1.976       .  S
Zn140       O143   1.939       .  S
Zn141       O146   2.000       .  S
Zn141       O149   1.959       .  S
Zn141       O152   1.991       .  S
Zn141       O143   1.918       .  S
Zn142       O150   2.095       .  S
Zn142       O153   2.114       .  S
Zn142       O154   2.118       .  S
Zn142       O143   1.970       .  S
O144        C156   1.274       .  A
O145        C157   1.268       .  A
O146        C158   1.271       .  A
O147        C156   1.273       .  A
O148        C158   1.272       .  A
O149        C157   1.268       .  A
O150        C159   1.282       .  A
O151        C160   1.269       .  A
O152        C159   1.270       .  A
O153        C160   1.286       .  A
O154        C161   1.292       .  A
O155        C161   1.283       .  A
C156       C2037   1.485       .  S
C157       C2021   1.454       .  S
C158       C2053   1.471       .  S
C159       C1965   1.482       .  S
C160       C1989   1.482       .  S
C161       C1997   1.504       .  S
Zn162       O167   2.059       .  S
Zn162       O171   2.089       .  S
Zn162       O178   2.063       .  S
Zn162       O166   1.937       .  S
Zn163       O168   2.035       .  S
Zn163       O170   1.990       .  S
Zn163       O174   1.995       .  S
Zn163       O166   1.907       .  S
Zn164       O169   2.054       .  S
Zn164       O172   2.069       .  S
Zn164       O175   2.024       .  S
Zn164       O166   1.930       .  S
Zn165       O173   2.026       .  S
Zn165       O176   1.994       .  S
Zn165       O177   2.028       .  S
Zn165       O166   1.957       .  S
O167        C179   1.279       .  A
O168        C180   1.276       .  A
O169        C181   1.284       .  A
O170        C179   1.271       .  A
O171        C181   1.288       .  A
O172        C180   1.281       .  A
O173        C182   1.277       .  A
O174        C183   1.272       .  A
O175        C182   1.274       .  A
O176        C183   1.268       .  A
O177        C184   1.276       .  A
O178        C184   1.276       .  A
C179       C2165   1.470       .  S
C180       C1933   1.487       .  S
C181       C2005   1.503       .  S
C182       C1917   1.475       .  S
C183       C1949   1.464       .  S
C184       C2149   1.487       .  S
Zn185       O190   2.099       .  S
Zn185       O194   2.079       .  S
Zn185       O201   2.094       .  S
Zn185      O2745   1.964   1_554  S
Zn186       O193   1.979       .  S
Zn186       O197   1.951   1_554  S
Zn186      O2747   1.989   1_554  S
Zn186      O2745   1.927   1_554  S
Zn187       O192   2.031       .  S
Zn187       O195   2.079       .  S
Zn187       O198   2.061       .  S
Zn187       O189   1.965       .  S
Zn188       O199   1.969   1_554  S
Zn188       O200   1.987       .  S
Zn188      O2752   1.980   1_554  S
Zn188      O2745   1.940   1_554  S
O189      Zn2741   1.980       .  S
O189      Zn2742   1.942       .  S
O189      Zn2744   1.936       .  S
O190        C202   1.283       .  A
O191      Zn2742   2.004       .  S
O191        C203   1.270       .  A
O192        C204   1.282       .  A
O193        C202   1.269       .  A
O194       C2760   1.290   1_554  A
O195        C203   1.280       .  A
O196      Zn2744   1.967       .  S
O196        C205   1.266       .  A
O197        C206   1.267       .  A
O198        C205   1.276       .  A
O199        C206   1.269       .  A
O200        C207   1.268       .  A
O201        C207   1.281       .  A
C202       C1973   1.490       .  S
C203       C1981   1.495       .  S
C204       O2750   1.289       .  A
C204       C1853   1.496       .  S
C205       C1885   1.484       .  S
C206       C1901   1.457       .  S
C207       C1869   1.488       .  S
Zn208       O213   2.075       .  S
Zn208       O217   2.061       .  S
Zn208       O224   2.007       .  S
Zn208       O212   1.955       .  S
Zn209       O214   1.996       .  S
Zn209       O216   1.979       .  S
Zn209       O220   1.974       .  S
Zn209       O212   1.913       .  S
Zn210       O215   1.969       .  S
Zn210       O218   1.969       .  S
Zn210       O221   1.966       .  S
Zn210       O212   1.914       .  S
Zn211       O219   2.102       .  S
Zn211       O222   2.079       .  S
Zn211       O223   2.090       .  S
Zn211       O212   1.959       .  S
O213        C225   1.278       .  A
O214        C226   1.272       .  A
O215        C227   1.267       .  A
O216        C225   1.269       .  A
O217        C227   1.278       .  A
O218        C226   1.268       .  A
O219        C228   1.282       .  A
O220        C229   1.272       .  A
O221        C228   1.266       .  A
O222        C229   1.283       .  A
O223        C230   1.289       .  A
O224        C230   1.278       .  A
C225       C4857   1.488       .  S
C226       C1837   1.462       .  S
C227       C4377   1.481       .  S
C228       C1813   1.495       .  S
C229       C2293   1.478       .  S
C230       C1861   1.494       .  S
Zn231       O236   2.091       .  S
Zn231       O240   2.043       .  S
Zn231       O247   2.046       .  S
Zn231       O235   1.944       .  S
Zn232       O237   1.958       .  S
Zn232       O239   1.963       .  S
Zn232       O243   1.994       .  S
Zn232       O235   1.929       .  S
Zn233       O238   2.069       .  S
Zn233       O241   2.079       .  S
Zn233       O244   2.093       .  S
Zn233       O235   1.962       .  S
Zn234       O242   1.973       .  S
Zn234       O245   1.984       .  S
Zn234       O246   1.980       .  S
Zn234       O235   1.908       .  S
O236        C248   1.282       .  A
O237        C249   1.265       .  A
O238        C250   1.286       .  A
O239        C248   1.266       .  A
O240        C250   1.282       .  A
O241        C249   1.280       .  A
O242        C251   1.267       .  A
O243        C252   1.269       .  A
O244        C251   1.282       .  A
O245        C252   1.273       .  A
O246        C253   1.272       .  A
O247        C253   1.278       .  A
C248       C2381   1.491       .  S
C249       C2405   1.481       .  S
C250       C1741   1.496       .  S
C251       C1773   1.492       .  S
C252       C1765   1.460       .  S
C253       C1789   1.479       .  S
Zn254       O259   2.049       .  S
Zn254       O263   2.046       .  S
Zn254       O270   2.033       .  S
Zn254       O258   1.956       .  S
Zn255       O260   1.983       .  S
Zn255       O262   1.962       .  S
Zn255       O266   1.956       .  S
Zn255       O258   1.940       .  S
Zn256       O261   2.009       .  S
Zn256       O264   1.997       .  S
Zn256       O267   1.966       .  S
Zn256       O258   1.940       .  S
Zn257       O265   2.087       .  S
Zn257       O268   2.111       .  S
Zn257       O269   2.084       .  S
Zn257       O258   1.974       .  S
O259        C271   1.275       .  A
O260        C272   1.269       .  A
O261        C273   1.271       .  A
O262        C271   1.265       .  A
O263        C273   1.277       .  A
O264        C272   1.270       .  A
O265        C274   1.282       .  A
O266        C275   1.265       .  A
O267        C274   1.269       .  A
O268        C275   1.284       .  A
O269        C276   1.288       .  A
O270        C276   1.281       .  A
C271       C1725   1.472       .  S
C272       C1693   1.464       .  S
C273       C2085   1.484       .  S
C274       C2069   1.485       .  S
C275       C1717   1.495       .  S
C276       C1749   1.497       .  S
Zn277       O282   2.001       .  S
Zn277       O286   2.063       .  S
Zn277       O293   2.046       .  S
Zn277       O281   1.927       .  S
Zn278       O283   1.987       .  S
Zn278       O285   1.988       .  S
Zn278       O289   1.998       .  S
Zn278       O281   1.897       .  S
Zn279       O284   2.030       .  S
Zn279       O287   2.007       .  S
Zn279       O290   2.004   1_554  S
Zn279       O281   1.943       .  S
Zn280       O288   2.044       .  S
Zn280       O291   2.073       .  S
Zn280       O292   2.066       .  S
Zn280       O281   1.930       .  S
O282        C294   1.270       .  A
O283        C295   1.271       .  A
O284        C296   1.276       .  A
O285        C294   1.270       .  A
O286        C296   1.279       .  A
O287        C295   1.269       .  A
O288        C297   1.277       .  A
O289        C298   1.272       .  A
O290        C297   1.275   1_556  A
O291        C298   1.280       .  A
O292        C299   1.285       .  A
O293        C299   1.283       .  A
C294       C1613   1.455       .  S
C295       C1637   1.458       .  S
C296       C4153   1.492       .  S
C297       C4209   1.480   1_554  S
C298       C1661   1.482       .  S
C299       C1677   1.484       .  S
Zn300       O305   2.058       .  S
Zn300       O309   2.135       .  S
Zn300       O316   2.083       .  S
Zn300       O304   1.960       .  S
Zn301       O306   2.074       .  S
Zn301       O308   2.061       .  S
Zn301       O312   2.077       .  S
Zn301       O304   1.928       .  S
Zn302       O307   1.949       .  S
Zn302       O310   1.950       .  S
Zn302       O313   1.959       .  S
Zn302       O304   1.874       .  S
Zn303       O311   2.012       .  S
Zn303       O314   1.992       .  S
Zn303       O315   1.964       .  S
Zn303       O304   1.925       .  S
O305        C317   1.285       .  A
O306        C318   1.282       .  A
O307        C319   1.265       .  A
O308        C317   1.286       .  A
O309        C319   1.286       .  A
O310        C318   1.269       .  A
O311        C320   1.270       .  A
O312        C321   1.281       .  A
O313        C320   1.268       .  A
O314        C321   1.271       .  A
O315        C322   1.268       .  A
O316        C322   1.283       .  A
C317       C1685   1.493       .  S
C318       C1589   1.470       .  S
C319       C1573   1.503       .  S
C320       C1757   1.459       .  S
C321       C2413   1.492       .  S
C322       C2437   1.480       .  S
Zn323       O328   2.000       .  S
Zn323       O332   1.960       .  S
Zn323       O339   1.966       .  S
Zn323       O327   1.942       .  S
Zn324       O329   1.946       .  S
Zn324       O331   1.969       .  S
Zn324       O335   1.942       .  S
Zn324       O327   1.913       .  S
Zn325       O330   2.049       .  S
Zn325       O333   2.078       .  S
Zn325       O336   2.041       .  S
Zn325       O327   1.972       .  S
Zn326       O334   2.107       .  S
Zn326       O337   2.119       .  S
Zn326       O338   2.105       .  S
Zn326       O327   1.965       .  S
O328        C340   1.269       .  A
O329        C341   1.265       .  A
O330        C342   1.276       .  A
O331        C340   1.266       .  A
O332        C342   1.267       .  A
O333        C341   1.280       .  A
O334        C343   1.291       .  A
O335        C344   1.264       .  A
O336        C343   1.282       .  A
O337        C344   1.285       .  A
O338        C345   1.284       .  A
O339        C345   1.267       .  A
C340       C2453   1.469       .  S
C341       C1581   1.483       .  S
C342       C1797   1.476       .  S
C343       C1549   1.505       .  S
C344       C4121   1.487       .  S
C345       C4337   1.494       .  S
Zn346       O351   2.108       .  S
Zn346       O355   2.104       .  S
Zn346       O362   2.103       .  S
Zn346       O350   1.963       .  S
Zn347       O352   1.960       .  S
Zn347       O354   1.972       .  S
Zn347       O358   1.968       .  S
Zn347       O350   1.915       .  S
Zn348       O353   2.050       .  S
Zn348       O356   2.079       .  S
Zn348       O359   2.111       .  S
Zn348       O350   1.974       .  S
Zn349       O357   1.969       .  S
Zn349       O360   2.018       .  S
Zn349       O361   1.958       .  S
Zn349       O350   1.940       .  S
O351        C363   1.285       .  A
O352        C364   1.266       .  A
O353        C365   1.284       .  A
O354        C363   1.268       .  A
O355        C365   1.291       .  A
O356        C364   1.279       .  A
O357        C366   1.267       .  A
O358        C367   1.269       .  A
O359        C366   1.283       .  A
O360        C367   1.270       .  A
O361        C368   1.266       .  A
O362        C368   1.283       .  A
C363       C1533   1.492       .  S
C364       C1517   1.487       .  S
C365       C1557   1.504       .  S
C366       C1477   1.495       .  S
C367       C1501   1.463       .  S
C368       C1493   1.481       .  S
Zn369       O374   1.969       .  S
Zn369       O378   1.988       .  S
Zn369       O385   1.947       .  S
Zn369       O373   1.876       .  S
Zn370       O375   2.038       .  S
Zn370       O377   2.076       .  S
Zn370       O381   2.062       .  S
Zn370       O373   1.929       .  S
Zn371       O376   2.002       .  S
Zn371       O379   1.987       .  S
Zn371       O382   1.988       .  S
Zn371       O373   1.924       .  S
Zn372       O380   2.076       .  S
Zn372       O383   2.053       .  S
Zn372       O384   2.101       .  S
Zn372       O373   1.928       .  S
O374        C386   1.272       .  A
O375        C387   1.277       .  A
O376        C388   1.270       .  A
O377        C386   1.283       .  A
O378        C388   1.270       .  A
O379        C387   1.273       .  A
O380        C389   1.282       .  A
O381        C390   1.285       .  A
O382        C389   1.273       .  A
O383        C390   1.284       .  A
O384        C391   1.284       .  A
O385        C391   1.267       .  A
C386       C1381   1.486       .  S
C387       C1421   1.478       .  S
C388       C1453   1.468       .  S
C389       C1437   1.489       .  S
C390       C1413   1.488       .  S
C391       C1389   1.486       .  S
Zn392       O397   2.048       .  S
Zn392       O401   2.056       .  S
Zn392       O408   2.056       .  S
Zn392       O396   1.946       .  S
Zn393       O398   2.010       .  S
Zn393       O400   2.005       .  S
Zn393       O404   1.992       .  S
Zn393       O396   1.964       .  S
Zn394       O399   2.050       .  S
Zn394       O402   2.081       .  S
Zn394       O405   2.024       .  S
Zn394       O396   1.945       .  S
Zn395       O403   2.016       .  S
Zn395       O406   1.960       .  S
Zn395       O407   2.032       .  S
Zn395       O396   1.927       .  S
O397        C409   1.276       .  A
O398        C410   1.274       .  A
O399        C411   1.283       .  A
O400        C409   1.273       .  A
O401        C411   1.284       .  A
O402        C410   1.279       .  A
O403        C412   1.274       .  A
O404        C413   1.266       .  A
O405        C412   1.273       .  A
O406        C413   1.268       .  A
O407        C414   1.273       .  A
O408        C414   1.278       .  A
C409       C3913   1.476       .  S
C410       C4833   1.497       .  S
C411       C1405   1.486       .  S
C412       C2261   1.473       .  S
C413       C1845   1.445       .  S
C414       C1349   1.486       .  S
Zn415       O420   2.013   1_554  S
Zn415       O424   2.012       .  S
Zn415       O431   2.010   1_554  S
Zn415       O419   1.973       .  S
Zn416       O421   2.016       .  S
Zn416       O423   2.063       .  S
Zn416       O427   2.045       .  S
Zn416       O419   1.947       .  S
Zn417       O422   1.966       .  S
Zn417       O425   2.009       .  S
Zn417       O428   1.994       .  S
Zn417       O419   1.927       .  S
Zn418       O426   2.082       .  S
Zn418       O429   2.104       .  S
Zn418       O430   2.058       .  S
Zn418       O419   1.970       .  S
O420        C432   1.275   1_556  A
O421        C433   1.271       .  A
O422        C434   1.266       .  A
O423        C432   1.277       .  A
O424        C434   1.267       .  A
O425        C433   1.272       .  A
O426        C435   1.280       .  A
O427        C436   1.281       .  A
O428        C435   1.273       .  A
O429        C436   1.288       .  A
O430        C437   1.279       .  A
O431        C437   1.274   1_556  A
C432       C1301   1.486   1_554  S
C433       C1309   1.467       .  S
C434       C1333   1.452       .  S
C435       C1485   1.492       .  S
C436       C1277   1.492       .  S
C437       C1469   1.488   1_554  S
Zn438       O443   1.979       .  S
Zn438       O447   1.966       .  S
Zn438       O454   1.950       .  S
Zn438       O442   1.918       .  S
Zn439       O444   1.980       .  S
Zn439       O446   2.002       .  S
Zn439       O450   1.999       .  S
Zn439       O442   1.932       .  S
Zn440       O445   2.100       .  S
Zn440       O448   2.104       .  S
Zn440       O451   2.121       .  S
Zn440       O442   1.967       .  S
Zn441       O449   2.027       .  S
Zn441       O452   2.063       .  S
Zn441       O453   2.066       .  S
Zn441       O442   1.955       .  S
O443        C455   1.268       .  A
O444        C456   1.271       .  A
O445        C457   1.283       .  A
O446        C455   1.271       .  A
O447        C457   1.267       .  A
O448        C456   1.286       .  A
O449        C458   1.280       .  A
O450        C459   1.272       .  A
O451        C458   1.293       .  A
O452        C459   1.279       .  A
O453        C460   1.278       .  A
O454        C460   1.265       .  A
C455       C2245   1.466       .  S
C456       C1341   1.491       .  S
C457       C1805   1.490       .  S
C458       C1285   1.504       .  S
C459       C1365   1.490       .  S
C460       C1829   1.481       .  S
Zn461       O466   2.083       .  S
Zn461       O470   2.072       .  S
Zn461       O477   2.037       .  S
Zn461       O465   1.955       .  S
Zn462       O467   2.005       .  S
Zn462       O469   1.954       .  S
Zn462       O473   1.943       .  S
Zn462       O465   1.916       .  S
Zn463       O468   1.968       .  S
Zn463       O471   2.003       .  S
Zn463       O474   1.963       .  S
Zn463       O465   1.918       .  S
Zn464       O472   2.098       .  S
Zn464       O475   2.118       .  S
Zn464       O476   2.124       .  S
Zn464       O465   1.974       .  S
O466        C478   1.281       .  A
O467        C479   1.270       .  A
O468        C480   1.268       .  A
O469        C478   1.266       .  A
O470        C480   1.281       .  A
O471        C479   1.270       .  A
O472        C481   1.282       .  A
O473        C482   1.268       .  A
O474        C481   1.268       .  A
O475        C482   1.288       .  A
O476        C483   1.292       .  A
O477        C483   1.280       .  A
C478       C1397   1.485       .  S
C479       C1229   1.478       .  S
C480       C1261   1.485       .  S
C481       C1245   1.493       .  S
C482       C1373   1.486       .  S
C483       C1221   1.501       .  S
Zn484       O489   2.025       .  S
Zn484       O493   2.072       .  S
Zn484       O500   2.061       .  S
Zn484       O488   1.952       .  S
Zn485       O490   1.970       .  S
Zn485       O492   2.006       .  S
Zn485       O496   2.009       .  S
Zn485       O488   1.921       .  S
Zn486       O491   2.012       .  S
Zn486       O494   2.019       .  S
Zn486       O497   2.008       .  S
Zn486       O488   1.976       .  S
Zn487       O495   2.066       .  S
Zn487       O498   2.088       .  S
Zn487       O499   2.102       .  S
Zn487       O488   1.964       .  S
O489        C501   1.272       .  A
O490        C502   1.269       .  A
O491        C503   1.275       .  A
O492        C501   1.271       .  A
O493        C503   1.278       .  A
O494        C502   1.268       .  A
O495        C504   1.279       .  A
O496        C505   1.275       .  A
O497        C504   1.274       .  A
O498        C505   1.282       .  A
O499        C506   1.289       .  A
O500        C506   1.283       .  A
C501       C2229   1.470       .  S
C502       C1957   1.464       .  S
C503       C2213   1.492       .  S
C504       C1205   1.479       .  S
C505       C1181   1.495       .  S
C506       C1213   1.500       .  S
Zn507       O512   2.078       .  S
Zn507       O516   2.001       .  S
Zn507       O523   2.057       .  S
Zn507       O511   1.954       .  S
Zn508       O513   1.974       .  S
Zn508       O515   1.990       .  S
Zn508       O519   1.992       .  S
Zn508       O511   1.918       .  S
Zn509       O514   2.113       .  S
Zn509       O517   2.096       .  S
Zn509       O520   2.101       .  S
Zn509       O511   1.974       .  S
Zn510       O518   1.988       .  S
Zn510       O521   1.990       .  S
Zn510       O522   1.987       .  S
Zn510       O511   1.942       .  S
O512        C524   1.278       .  A
O513        C525   1.271       .  A
O514        C526   1.292       .  A
O515        C524   1.269       .  A
O516        C526   1.278       .  A
O517        C525   1.284       .  A
O518        C527   1.269       .  A
O519        C528   1.272       .  A
O520        C527   1.283       .  A
O521        C528   1.269       .  A
O522        C529   1.271       .  A
O523        C529   1.278       .  A
C524       C1645   1.493       .  S
C525       C1669   1.483       .  S
C526       C1165   1.496       .  S
C527       C1149   1.494       .  S
C528       C1117   1.468       .  S
C529       C1141   1.486       .  S
Zn530       O535   2.070       .  S
Zn530       O539   2.009       .  S
Zn530       O546   2.083       .  S
Zn530       O534   1.964       .  S
Zn531       O536   1.971       .  S
Zn531       O538   1.983       .  S
Zn531       O542   2.003       .  S
Zn531       O534   1.944       .  S
Zn532       O537   2.096       .  S
Zn532       O540   2.084       .  S
Zn532       O543   2.088       .  S
Zn532       O534   1.977       .  S
Zn533       O541   1.951       .  S
Zn533       O544   1.952       .  S
Zn533       O545   1.955       .  S
Zn533       O534   1.905       .  S
O535        C547   1.280       .  A
O536        C548   1.268       .  A
O537        C549   1.290       .  A
O538        C547   1.271       .  A
O539        C549   1.278       .  A
O540        C548   1.281       .  A
O541        C550   1.265       .  A
O542        C551   1.269       .  A
O543        C550   1.280       .  A
O544        C551   1.267       .  A
O545        C552   1.266       .  A
O546        C552   1.278       .  A
C547       C1197   1.490       .  S
C548       C3745   1.477       .  S
C549       C1173   1.494       .  S
C550       C4497   1.479       .  S
C551       C2189   1.466       .  S
C552       C1925   1.485       .  S
Zn553       O558   2.008       .  S
Zn553       O562   2.013       .  S
Zn553       O569   2.001       .  S
Zn553       O557   1.966       .  S
Zn554       O559   2.055       .  S
Zn554       O561   2.030       .  S
Zn554       O565   2.084       .  S
Zn554       O557   1.941       .  S
Zn555       O560   2.062       .  S
Zn555       O563   2.069       .  S
Zn555       O566   2.063       .  S
Zn555       O557   1.948       .  S
Zn556       O564   2.003       .  S
Zn556       O567   2.022       .  S
Zn556       O568   1.956       .  S
Zn556       O557   1.909       .  S
O558        C570   1.273       .  A
O559        C571   1.283       .  A
O560        C572   1.276       .  A
O561        C570   1.274       .  A
O562        C572   1.273       .  A
O563        C571   1.285       .  A
O564        C573   1.272       .  A
O565        C574   1.282       .  A
O566        C573   1.279       .  A
O567        C574   1.274       .  A
O568        C575   1.269       .  A
O569        C575   1.268       .  A
C570       C1893   1.470       .  S
C571       C1109   1.487       .  S
C572       C1085   1.482       .  S
C573       C1069   1.476       .  S
C574       C1877   1.489       .  S
C575       C2013   1.459       .  S
Zn576       O581   1.934       .  S
Zn576       O585   1.960       .  S
Zn576       O592   1.982       .  S
Zn576       O580   1.908       .  S
Zn577       O582   2.116       .  S
Zn577       O584   2.124       .  S
Zn577       O588   2.094       .  S
Zn577       O580   1.973       .  S
Zn578       O583   2.016       .  S
Zn578       O586   1.980       .  S
Zn578       O589   1.970       .  S
Zn578       O580   1.948       .  S
Zn579       O587   2.042       .  S
Zn579       O590   2.035       .  S
Zn579       O591   2.078       .  S
Zn579       O580   1.957       .  S
O581        C593   1.264       .  A
O582        C594   1.285       .  A
O583        C595   1.270       .  A
O584        C593   1.285       .  A
O585        C595   1.267       .  A
O586        C594   1.270       .  A
O587        C596   1.276       .  A
O588        C597   1.289       .  A
O589        C596   1.269       .  A
O590        C597   1.281       .  A
O591        C598   1.281       .  A
O592        C598   1.268       .  A
C593       C1037   1.487       .  S
C594       C1293   1.500       .  S
C595       C1509   1.464       .  S
C596       C1317   1.477       .  S
C597       C1101   1.497       .  S
C598       C1053   1.487       .  S
Zn599       O604   2.015       .  S
Zn599       O615   2.003   1_556  S
Zn599      O3164   1.983       .  S
Zn599       O603   1.956       .  S
Zn600       O607   1.977       .  S
Zn600       O611   1.968   1_556  S
Zn600      O3161   1.965       .  S
Zn600       O603   1.908       .  S
Zn601       O606   2.099       .  S
Zn601       O609   2.112       .  S
Zn601       O612   2.089       .  S
Zn601      O3159   1.965       .  S
Zn602       O610   2.048       .  S
Zn602       O613   2.069       .  S
Zn602       O614   2.064       .  S
Zn602       O603   1.941   1_554  S
O603      Zn3157   1.963       .  S
O604        C616   1.270       .  A
O605      Zn3156   1.955       .  S
O605        C617   1.264       .  A
O606        C618   1.285       .  A
O607        C616   1.270       .  A
O608      Zn3155   1.986       .  S
O608        C618   1.272       .  A
O609        C617   1.283       .  A
O610        C619   1.282       .  A
O611        C620   1.269       .  A
O612       C3175   1.288       .  A
O613        C620   1.280       .  A
O614        C621   1.280       .  A
O615        C621   1.272       .  A
C616       C2125   1.467       .  S
C617       C1709   1.494       .  S
C618       C1005   1.497       .  S
C619       O3168   1.291   1_554  A
C619       C1029   1.508       .  S
C620       C1733   1.484       .  S
C621        C989   1.492       .  S
Zn622       O627   2.128       .  S
Zn622       O631   2.113       .  S
Zn622       O638   2.113       .  S
Zn622       O626   1.942       .  S
Zn623       O628   2.114       .  S
Zn623       O630   2.048       .  S
Zn623       O634   2.067       .  S
Zn623       O626   1.951       .  S
Zn624       O629   1.951       .  S
Zn624       O632   1.943       .  S
Zn624       O635   1.973       .  S
Zn624       O626   1.886       .  S
Zn625       O633   2.006       .  S
Zn625       O636   1.963       .  S
Zn625       O637   1.973       .  S
Zn625       O626   1.919       .  S
O627        C639   1.295       .  A
O628        C640   1.284       .  A
O629        C641   1.269       .  A
O630        C639   1.283       .  A
O631        C641   1.287       .  A
O632        C640   1.265       .  A
O633        C642   1.269       .  A
O634        C643   1.281       .  A
O635        C642   1.269       .  A
O636        C643   1.268       .  A
O637        C644   1.270       .  A
O638        C644   1.286       .  A
C639       C1021   1.510       .  S
C640       C3601   1.496       .  S
C641       C1061   1.483       .  S
C642       C1325   1.468       .  S
C643       C1525   1.477   1_554  S
C644       C1541   1.495       .  S
Zn645       O650   2.022       .  S
Zn645       O654   1.963       .  S
Zn645       O661   1.994       .  S
Zn645       O649   1.905       .  S
Zn646       O651   2.028       .  S
Zn646       O653   2.072       .  S
Zn646       O657   2.014       .  S
Zn646       O649   1.939       .  S
Zn647       O652   2.010       .  S
Zn647       O655   2.009       .  S
Zn647       O658   2.014       .  S
Zn647       O649   1.958       .  S
Zn648       O656   2.072       .  S
Zn648       O659   2.088       .  S
Zn648       O660   2.077       .  S
Zn648       O649   1.963       .  S
O650        C662   1.274       .  A
O651        C663   1.275       .  A
O652        C664   1.270       .  A
O653        C662   1.278       .  A
O654        C664   1.269       .  A
O655        C663   1.273       .  A
O656        C665   1.278       .  A
O657        C666   1.280       .  A
O658        C665   1.273       .  A
O659        C666   1.287       .  A
O660        C667   1.282       .  A
O661        C667   1.272       .  A
C662       C2101   1.487       .  S
C663       C2117   1.476       .  S
C664       C1701   1.457       .  S
C665       C1013   1.482       .  S
C666        C973   1.493       .  S
C667        C997   1.479       .  S
Zn668       O673   1.995       .  S
Zn668       O677   2.006       .  S
Zn668       O684   2.045       .  S
Zn668       O672   1.914       .  S
Zn669       O674   2.022       .  S
Zn669       O676   1.995       .  S
Zn669       O680   2.020       .  S
Zn669       O672   1.951       .  S
Zn670       O675   2.073       .  S
Zn670       O678   2.047       .  S
Zn670       O681   2.084       .  S
Zn670       O672   1.938       .  S
Zn671       O679   2.009       .  S
Zn671       O682   2.028       .  S
Zn671       O683   2.039       .  S
Zn671       O672   1.917       .  S
O673        C685   1.273       .  A
O674        C686   1.274       .  A
O675        C687   1.281       .  A
O676        C685   1.270       .  A
O677        C687   1.273       .  A
O678        C686   1.277       .  A
O679        C688   1.279       .  A
O680        C689   1.275       .  A
O681        C688   1.286       .  A
O682        C689   1.274       .  A
O683        C690   1.277       .  A
O684        C690   1.277       .  A
C685       C1461   1.461       .  S
C686        C965   1.488       .  S
C687        C941   1.477       .  S
C688        C981   1.494       .  S
C689       C1269   1.478       .  S
C690       C1253   1.482       .  S
Zn691       O696   2.068       .  S
Zn691       O700   2.055       .  S
Zn691       O707   2.113       .  S
Zn691       O695   1.953       .  S
Zn692       O697   1.986       .  S
Zn692       O699   2.019       .  S
Zn692       O703   2.034       .  S
Zn692       O695   1.933       .  S
Zn693       O698   2.013       .  S
Zn693       O701   2.017       .  S
Zn693       O704   2.026       .  S
Zn693       O695   1.969       .  S
Zn694       O702   2.024       .  S
Zn694       O705   2.008       .  S
Zn694       O706   2.010       .  S
Zn694       O695   1.916       .  S
O696        C708   1.280       .  A
O697        C709   1.270       .  A
O698        C710   1.274       .  A
O699        C708   1.274       .  A
O700        C710   1.280       .  A
O701        C709   1.270       .  A
O702        C711   1.273       .  A
O703        C712   1.275       .  A
O704        C711   1.275       .  A
O705        C712   1.272       .  A
O706        C713   1.278       .  A
O707        C713   1.288       .  A
C708       C3505   1.482       .  S
C709       C1237   1.458       .  S
C710        C957   1.484       .  S
C711       C1445   1.481       .  S
C712       C1429   1.471       .  S
C713        C925   1.504       .  S
Zn714       O723   2.074       .  S
Zn714       O730   2.062       .  S
Zn714      O3275   2.052   1_554  S
Zn714       O718   1.954   1_554  S
Zn715       O720   2.011       .  S
Zn715       O722   2.010       .  S
Zn715       O726   2.028       .  S
Zn715      O3274   1.974       .  S
Zn716       O721   2.074       .  S
Zn716       O727   2.020       .  S
Zn716      O3280   2.076   1_554  S
Zn716       O718   1.953   1_554  S
Zn717       O725   2.000       .  S
Zn717       O728   1.971   1_554  S
Zn717       O729   2.006       .  S
Zn717       O718   1.924   1_554  S
O718      Zn3271   1.968       .  S
O719      Zn3270   2.070       .  S
O719        C731   1.279       .  A
O720        C732   1.274       .  A
O721        C733   1.285       .  A
O722        C731   1.273       .  A
O723        C733   1.285       .  A
O724      Zn3272   2.068       .  S
O724        C732   1.278       .  A
O725        C734   1.274       .  A
O726       C3291   1.270       .  A
O727        C734   1.275       .  A
O728        C735   1.268       .  A
O729        C736   1.271       .  A
O730        C736   1.277       .  A
C731        C893   1.486       .  S
C732       C2341   1.484       .  S
C733        C933   1.505       .  S
C734       C2357   1.475       .  S
C735       O3282   1.269       .  A
C735       C2517   1.466       .  S
C736        C917   1.479       .  S
Zn737       O742   2.042       .  S
Zn737       O746   1.991       .  S
Zn737       O753   1.968       .  S
Zn737       O741   1.949       .  S
Zn738       O743   1.958       .  S
Zn738       O745   1.950       .  S
Zn738       O749   1.950       .  S
Zn738       O741   1.889       .  S
Zn739       O744   2.049       .  S
Zn739       O747   2.028       .  S
Zn739       O750   2.008       .  S
Zn739       O741   1.943       .  S
Zn740       O748   2.104       .  S
Zn740       O751   2.142       .  S
Zn740       O752   2.106       .  S
Zn740       O741   1.979       .  S
O742        C754   1.273       .  A
O743        C755   1.268       .  A
O744        C756   1.277       .  A
O745        C754   1.267       .  A
O746        C756   1.270       .  A
O747        C755   1.274       .  A
O748        C757   1.290       .  A
O749        C758   1.266       .  A
O750        C757   1.277       .  A
O751        C758   1.285       .  A
O752        C759   1.286       .  A
O753        C759   1.268       .  A
C754       C1125   1.471       .  S
C755       C1621   1.473       .  S
C756        C869   1.485       .  S
C757        C885   1.497       .  S
C758       C1605   1.498       .  S
C759        C853   1.489       .  S
Zn760       O765   2.092       .  S
Zn760       O769   2.086       .  S
Zn760       O776   2.087       .  S
Zn760       O764   1.964       .  S
Zn761       O766   2.062       .  S
Zn761       O768   2.010       .  S
Zn761       O772   2.084       .  S
Zn761       O764   1.956       .  S
Zn762       O767   1.973       .  S
Zn762       O770   1.962       .  S
Zn762       O773   1.982       .  S
Zn762       O764   1.929       .  S
Zn763       O771   1.967       .  S
Zn763       O774   1.990       .  S
Zn763       O775   1.975       .  S
Zn763       O764   1.920       .  S
O765        C777   1.290       .  A
O766        C778   1.278       .  A
O767        C779   1.267       .  A
O768        C777   1.279       .  A
O769        C779   1.280       .  A
O770        C778   1.267       .  A
O771        C780   1.269       .  A
O772        C781   1.281       .  A
O773        C780   1.269       .  A
O774        C781   1.270       .  A
O775        C782   1.270       .  A
O776        C782   1.283       .  A
C777        C877   1.495       .  S
C778       C2549   1.482       .  S
C779       C2525   1.486       .  S
C780       C2373   1.463       .  S
C781        C901   1.494       .  S
C782        C909   1.484       .  S
Zn783       O788   1.995       .  S
Zn783       O792   1.960       .  S
Zn783      O3355   1.991       .  S
Zn783      O3343   1.955       .  S
Zn784       O789   1.952       .  S
Zn784       O791   1.934       .  S
Zn784      O3351   1.969       .  S
Zn784      O3343   1.913       .  S
Zn785       O790   2.103       .  S
Zn785       O793   2.109       .  S
Zn785       O796   2.072       .  S
Zn785      O3343   1.995       .  S
Zn786       O794   2.007       .  S
Zn786       O797   2.054       .  S
Zn786       O798   2.060       .  S
Zn786       O787   1.960   1_554  S
O787      Zn3339   1.953       .  S
O787      Zn3340   1.925       .  S
O787      Zn3341   1.986       .  S
O788        C800   1.267       .  A
O789        C801   1.265       .  A
O790        C802   1.283       .  A
O791        C800   1.265       .  A
O792        C802   1.269       .  A
O793        C801   1.281       .  A
O794        C803   1.279       .  A
O795      Zn3340   1.977   1_554  S
O795        C804   1.267       .  A
O796       C3359   1.286       .  A
O797        C804   1.274       .  A
O798        C805   1.279       .  A
O799      Zn3339   1.996   1_554  S
O799        C805   1.270       .  A
C800       C1909   1.460       .  S
C801       C2029   1.492       .  S
C802       C1093   1.493       .  S
C803       O3352   1.288   1_554  A
C803        C829   1.490       .  S
C804       C2045   1.486       .  S
C805       C1077   1.489       .  S
Zn806       O811   1.998       .  S
Zn806       O815   1.973       .  S
Zn806       O822   2.048       .  S
Zn806       O810   1.909       .  S
Zn807       O812   2.050       .  S
Zn807       O814   2.058       .  S
Zn807       O818   2.069       .  S
Zn807       O810   1.939       .  S
Zn808       O813   2.015       .  S
Zn808       O816   2.026   1_554  S
Zn808       O819   2.003   1_554  S
Zn808       O810   1.958       .  S
Zn809       O817   2.009       .  S
Zn809       O820   2.022       .  S
Zn809       O821   2.063       .  S
Zn809       O810   1.931       .  S
O811        C823   1.274       .  A
O812        C824   1.275       .  A
O813        C825   1.271       .  A
O814        C823   1.280       .  A
O815        C825   1.270       .  A
O816        C824   1.274   1_556  A
O817        C826   1.273       .  A
O818        C827   1.283       .  A
O819        C826   1.274   1_556  A
O820        C827   1.279       .  A
O821        C828   1.279       .  A
O822        C828   1.276       .  A
C823        C861   1.474       .  S
C824       C3401   1.483   1_554  S
C825       C1629   1.456       .  S
C826       C3689   1.465   1_554  S
C827        C837   1.482       .  S
C828       C1157   1.491       .  S
C829        C830   1.405   1_554  A
C829        C834   1.409       .  A
C830        C831   1.407       .  A
C830        H839   1.083       .  S
C831        C832   1.408   1_556  A
C831        H840   1.083       .  S
C832        C838   1.414       .  A
C832        C833   1.412       .  A
C833        C835   1.402       .  A
C833        C834   1.403       .  A
C834       H3397   1.084       .  S
C835        C836   1.397       .  A
C835       H3398   1.083       .  S
C836        C837   1.403       .  A
C836        H843   1.084       .  S
C837        C838   1.412       .  A
C838        H844   1.083       .  S
H841       C3390   1.084       .  S
H842       C3391   1.083       .  S
C845       C3380   1.476       .  S
C845        C846   1.402       .  A
C845        C850   1.410       .  A
C846        C847   1.398       .  A
C846        H855   1.083       .  S
C847        C848   1.405       .  A
C847        H856   1.083       .  S
C848        C854   1.402       .  A
C848        C849   1.411       .  A
C849        C851   1.408       .  A
C849        C850   1.408       .  A
C850        H857   1.084       .  S
C851        C852   1.405       .  A
C851        H858   1.083       .  S
C852        C853   1.404       .  A
C852        H859   1.083       .  S
C853        C854   1.414       .  A
C854        H860   1.084       .  S
C861        C862   1.401       .  A
C861        C866   1.406       .  A
C862        C863   1.403       .  A
C862        H871   1.083       .  S
C863        C864   1.408       .  A
C863        H872   1.083       .  S
C864        C870   1.407       .  A
C864        C865   1.412       .  A
C865        C867   1.403       .  A
C865        C866   1.402       .  A
C866        H873   1.085       .  S
C867        C868   1.398       .  A
C867        H874   1.084       .  S
C868        C869   1.405       .  A
C868        H875   1.083       .  S
C869        C870   1.412       .  A
C870        H876   1.084       .  S
C877        C878   1.405       .  A
C877        C882   1.415       .  A
C878        C879   1.403       .  A
C878        H887   1.083       .  S
C879        C880   1.407       .  A
C879        H888   1.083       .  S
C880        C886   1.409       .  A
C880        C881   1.410       .  A
C881        C883   1.406       .  A
C881        C882   1.408       .  A
C882        H889   1.084       .  S
C883        C884   1.403       .  A
C883        H890   1.083       .  S
C884        C885   1.406       .  A
C884        H891   1.083       .  S
C885        C886   1.416       .  A
C886        H892   1.084       .  S
C893        C894   1.405       .  A
C893        C898   1.411       .  A
C894        C895   1.401       .  A
C894        H903   1.084       .  S
C895        C896   1.405       .  A
C895        H904   1.083       .  S
C896        C902   1.409       .  A
C896        C897   1.412       .  A
C897        C899   1.406       .  A
C897        C898   1.411       .  A
C898        H905   1.083       .  S
C899        C900   1.404       .  A
C899        H906   1.083       .  S
C900        C901   1.406       .  A
C900        H907   1.083       .  S
C901        C902   1.414       .  A
C902        H908   1.083       .  S
C909        C910   1.404       .  A
C909        C914   1.411       .  A
C910        C911   1.402       .  A
C910        H919   1.083       .  S
C911        C912   1.406       .  A
C911        H920   1.083       .  S
C912        C918   1.408       .  A
C912        C913   1.412       .  A
C913        C915   1.406       .  A
C913        C914   1.407       .  A
C914        H921   1.084       .  S
C915        C916   1.402       .  A
C915        H922   1.083       .  S
C916        C917   1.401       .  A
C916        H923   1.083       .  S
C917        C918   1.409       .  A
C918        H924   1.084       .  S
C925        C926   1.412       .  A
C925        C930   1.414       .  A
C926        C927   1.397       .  A
C926        H935   1.083       .  S
C927        C928   1.399       .  A
C927        H936   1.084       .  S
C928        C934   1.413       .  A
C928        C929   1.414       .  A
C929        C931   1.406       .  A
C929        C930   1.421       .  A
C930        H937   1.083       .  S
C931        C932   1.408       .  A
C931        H938   1.083       .  S
C932        C933   1.410       .  A
C932        H939   1.083       .  S
C933        C934   1.411       .  A
C934        H940   1.084       .  S
C941        C942   1.402       .  A
C941        C946   1.410       .  A
C942        C943   1.400       .  A
C942        H951   1.083       .  S
C943        C944   1.404       .  A
C943       H3508   1.084       .  S
C944        C945   1.413       .  A
C944       C3506   1.405       .  A
C945        C947   1.408       .  A
C945        C946   1.411       .  A
C946        H953   1.084       .  S
C947        C948   1.405       .  A
C947        H954   1.084       .  S
C948        C949   1.402       .  A
C948        H955   1.083       .  S
C949       C3264   1.480       .  S
C949       C3506   1.407       .  A
C950       C3500   1.409   1_554  A
C950       C3505   1.410       .  A
C950        H956   1.085       .  S
H952       C3499   1.084   1_554  S
C957        C958   1.407       .  A
C957        C962   1.408       .  A
C958        C959   1.400       .  A
C958        H967   1.084       .  S
C959        C960   1.402       .  A
C959        H968   1.083       .  S
C960        C966   1.411       .  A
C960        C961   1.415       .  A
C961        C963   1.402       .  A
C961        C962   1.411       .  A
C962        H969   1.084       .  S
C963        C964   1.400       .  A
C963        H970   1.083       .  S
C964        C965   1.407       .  A
C964        H971   1.083       .  S
C965        C966   1.409       .  A
C966        H972   1.084       .  S
C973        C974   1.406       .  A
C973        C978   1.409       .  A
C974        C975   1.408       .  A
C974        H983   1.083       .  S
C975        C976   1.408       .  A
C975        H984   1.083       .  S
C976        C982   1.416       .  A
C976        C977   1.413       .  A
C977        C979   1.399       .  A
C977        C978   1.404       .  A
C978        H985   1.084       .  S
C979        C980   1.394       .  A
C979        H986   1.084       .  S
C980        C981   1.409       .  A
C980        H987   1.083       .  S
C981        C982   1.413       .  A
C982        H988   1.083       .  S
C989        C990   1.406       .  A
C989        C994   1.415       .  A
C990        C991   1.399       .  A
C990        H999   1.083       .  S
C991        C992   1.403       .  A
C991       H1000   1.083       .  S
C992        C998   1.405       .  A
C992        C993   1.411       .  A
C993        C995   1.408       .  A
C993        C994   1.410       .  A
C994       H1001   1.083       .  S
C995        C996   1.405       .  A
C995       H1002   1.083       .  S
C996        C997   1.402       .  A
C996       H1003   1.083       .  S
C997        C998   1.408       .  A
C998       H1004   1.084       .  S
C1005      C1006   1.407       .  A
C1005      C1010   1.414       .  A
C1006      C1007   1.406       .  A
C1006      H1015   1.083       .  S
C1007      C1008   1.408       .  A
C1007      H1016   1.083       .  S
C1008      C1014   1.413       .  A
C1008      C1009   1.412       .  A
C1009      C1011   1.405       .  A
C1009      C1010   1.407       .  A
C1010      H1017   1.083       .  S
C1011      C1012   1.400       .  A
C1011      H1018   1.083       .  S
C1012      C1013   1.402       .  A
C1012      H1019   1.083       .  S
C1013      C1014   1.412       .  A
C1014      H1020   1.084       .  S
C1021      C1022   1.408       .  A
C1021      C1026   1.420       .  A
C1022      C1023   1.407       .  A
C1022      H1031   1.083       .  S
C1023      C1024   1.407       .  A
C1023      H1032   1.083       .  S
C1024      C1030   1.416       .  A
C1024      C1025   1.410       .  A
C1025      C1027   1.408   1_554  A
C1025      C1026   1.418       .  A
C1026      H1033   1.083       .  S
C1027      C1028   1.407       .  A
C1027      H3590   1.083       .  S
C1028      C1029   1.408   1_556  A
C1028      H3591   1.083       .  S
C1029      C1030   1.418       .  A
C1030      H1036   1.084       .  S
H1034      C3583   1.083       .  S
H1035      C3584   1.083       .  S
C1037      C1038   1.412       .  A
C1037      C1042   1.404       .  A
C1038      C1039   1.397       .  A
C1038      H1047   1.084       .  S
C1039      C1040   1.398       .  A
C1039      H1048   1.084       .  S
C1040      C1046   1.414       .  A
C1040      C1041   1.418       .  A
C1041      C1043   1.398       .  A
C1041      C1042   1.414       .  A
C1042      H1049   1.084       .  S
C1043      C3600   1.397       .  A
C1043      H1050   1.084       .  S
C1044      C3599   1.396       .  A
C1044      C3601   1.415       .  A
C1044      H1051   1.083       .  S
C1045      C3196   1.495       .  S
C1045      C1046   1.406       .  A
C1045      C3600   1.413       .  A
C1046      H1052   1.084       .  S
C1053      C1054   1.403       .  A
C1053      C1058   1.415       .  A
C1054      C1055   1.401       .  A
C1054      H1063   1.083       .  S
C1055      C1056   1.406       .  A
C1055      H1064   1.083       .  S
C1056      C1062   1.404       .  A
C1056      C1057   1.410       .  A
C1057      C1059   1.410       .  A
C1057      C1058   1.409       .  A
C1058      H1065   1.084       .  S
C1059      C1060   1.406       .  A
C1059      H1066   1.083       .  S
C1060      C1061   1.402       .  A
C1060      H1067   1.083       .  S
C1061      C1062   1.412       .  A
C1062      H1068   1.084       .  S
C1069      C1070   1.401       .  A
C1069      C1074   1.406       .  A
C1070      C1071   1.404       .  A
C1070      H1079   1.083       .  S
C1071      C1072   1.408       .  A
C1071      H1080   1.083       .  S
C1072      C1078   1.410       .  A
C1072      C1073   1.412       .  A
C1073      C1075   1.403       .  A
C1073      C1074   1.405       .  A
C1074      H1081   1.084       .  S
C1075      C1076   1.399       .  A
C1075      H1082   1.083       .  S
C1076      C1077   1.405       .  A
C1076      H1083   1.083       .  S
C1077      C1078   1.414       .  A
C1078      H1084   1.083       .  S
C1085      C1086   1.402       .  A
C1085      C1090   1.413       .  A
C1086      C1087   1.397       .  A
C1086      H1095   1.084       .  S
C1087      C1088   1.404       .  A
C1087      H1096   1.083       .  S
C1088      C1094   1.403       .  A
C1088      C1089   1.411       .  A
C1089      C1091   1.409       .  A
C1089      C1090   1.414       .  A
C1090      H1097   1.084       .  S
C1091      C1092   1.408       .  A
C1091      H1098   1.083       .  S
C1092      C1093   1.406       .  A
C1092      H1099   1.083       .  S
C1093      C1094   1.412       .  A
C1094      H1100   1.084       .  S
C1101      C1102   1.407       .  A
C1101      C1106   1.414       .  A
C1102      C1103   1.403       .  A
C1102      H1111   1.083       .  S
C1103      C1104   1.405       .  A
C1103      H1112   1.083       .  S
C1104      C1110   1.412       .  A
C1104      C1105   1.413       .  A
C1105      C1107   1.407       .  A
C1105      C1106   1.413       .  A
C1106      H1113   1.084       .  S
C1107      C1108   1.404       .  A
C1107      H1114   1.083       .  S
C1108      C1109   1.403       .  A
C1108      H1115   1.083       .  S
C1109      C1110   1.410       .  A
C1110      H1116   1.084       .  S
C1117      C1118   1.403       .  A
C1117      C1122   1.408       .  A
C1118      C1119   1.389       .  A
C1118      H1127   1.083       .  S
C1119      C1120   1.399       .  A
C1119      H1128   1.084       .  S
C1120      C1126   1.391       .  A
C1120      C1121   1.413       .  A
C1121      C1123   1.406       .  A
C1121      C1122   1.402       .  A
C1122      H1129   1.084       .  S
C1123      C1124   1.402       .  A
C1123      H1130   1.084       .  S
C1124      C1125   1.404       .  A
C1124      H1131   1.083       .  S
C1125      C1126   1.403       .  A
C1126      H1132   1.085       .  S
C1133      C3382   1.469       .  S
C1133      C1134   1.401       .  A
C1133      C1138   1.405       .  A
C1134      C1135   1.396       .  A
C1134      H1143   1.084       .  S
C1135      C1136   1.403       .  A
C1135      H1144   1.083       .  S
C1136      C1142   1.402       .  A
C1136      C1137   1.413       .  A
C1137      C1139   1.404       .  A
C1137      C1138   1.406       .  A
C1138      H3701   1.084       .  S
C1139      C1140   1.401       .  A
C1139      H1146   1.083       .  S
C1140      C1141   1.406       .  A
C1140      H1147   1.083       .  S
C1141      C1142   1.410       .  A
C1142      H1148   1.084       .  S
H1145      C3694   1.085       .  S
C1149      C1150   1.406       .  A
C1149      C1154   1.413       .  A
C1150      C1151   1.406       .  A
C1150      H1159   1.083       .  S
C1151      C1152   1.408       .  A
C1151      H1160   1.083       .  S
C1152      C1158   1.415       .  A
C1152      C1153   1.412       .  A
C1153      C1155   1.406       .  A
C1153      C1154   1.411       .  A
C1154      H1161   1.084       .  S
C1155      C1156   1.403       .  A
C1155      H1162   1.083       .  S
C1156      C1157   1.403       .  A
C1156      H1163   1.083       .  S
C1157      C1158   1.413       .  A
C1158      H1164   1.084       .  S
C1165      C1166   1.405       .  A
C1165      C1170   1.416       .  A
C1166      C1167   1.405   1_545  A
C1166      H1175   1.083       .  S
C1167      C1168   1.408       .  A
C1167      H1176   1.083       .  S
C1168      C1174   1.409       .  A
C1168      C1169   1.409   1_565  A
C1169      C1171   1.406   1_545  A
C1169      C1170   1.406       .  A
C1170      H1177   1.084       .  S
C1171      C1172   1.402       .  A
C1171      H1178   1.084   1_565  S
C1172      C1173   1.405       .  A
C1172      H1179   1.083       .  S
C1173      C1174   1.416       .  A
C1174      H1180   1.084       .  S
C1181      C1182   1.409       .  A
C1181      C1186   1.412       .  A
C1182      C1183   1.395       .  A
C1182      H1191   1.083       .  S
C1183      C1184   1.398       .  A
C1183      H1192   1.084       .  S
C1184      C1190   1.408       .  A
C1184      C1185   1.416       .  A
C1185      C1187   1.406       .  A
C1185      C1186   1.418       .  A
C1186      H1193   1.084       .  S
C1187      C1188   1.406       .  A
C1187      H1194   1.083       .  S
C1188      C1189   1.408       .  A
C1188      H3751   1.083   1_554  S
C1189      C3104   1.481   1_554  S
C1189      C1190   1.403       .  A
C1190      H1196   1.085       .  S
H1195      C3744   1.083       .  S
C1197      C1198   1.406       .  A
C1197      C1202   1.412       .  A
C1198      C1199   1.403       .  A
C1198      H1207   1.083       .  S
C1199      C1200   1.406       .  A
C1199      H1208   1.083       .  S
C1200      C1206   1.409       .  A
C1200      C1201   1.412       .  A
C1201      C1203   1.405       .  A
C1201      C1202   1.405       .  A
C1202      H1209   1.083       .  S
C1203      C1204   1.400       .  A
C1203      H1210   1.083       .  S
C1204      C1205   1.403       .  A
C1204      H1211   1.083       .  S
C1205      C1206   1.410       .  A
C1206      H1212   1.084       .  S
C1213      C1214   1.405       .  A
C1213      C1218   1.415       .  A
C1214      C1215   1.406       .  A
C1214      H1223   1.083       .  S
C1215      C1216   1.407       .  A
C1215      H1224   1.083       .  S
C1216      C1222   1.417       .  A
C1216      C1217   1.412       .  A
C1217      C1219   1.408       .  A
C1217      C1218   1.418       .  A
C1218      H1225   1.084       .  S
C1219      C1220   1.408       .  A
C1219      H1226   1.083       .  S
C1220      C1221   1.406       .  A
C1220      H1227   1.083       .  S
C1221      C1222   1.415       .  A
C1222      H1228   1.084       .  S
C1229      C1230   1.407       .  A
C1229      C1234   1.406       .  A
C1230      C1231   1.397       .  A
C1230      H1239   1.083       .  S
C1231      C1232   1.401       .  A
C1231      H1240   1.084       .  S
C1232      C1238   1.401       .  A
C1232      C1233   1.415       .  A
C1233      C1235   1.402       .  A
C1233      C1234   1.400       .  A
C1234      H1241   1.084       .  S
C1235      C1236   1.395       .  A
C1235      H1242   1.084       .  S
C1236      C1237   1.400       .  A
C1236      H1243   1.084       .  S
C1237      C1238   1.401       .  A
C1238      H1244   1.085       .  S
C1245      C3802   1.406   1_554  A
C1245      C3806   1.411       .  A
C1246      C1247   1.402       .  A
C1246      C3801   1.404       .  A
C1246      H1255   1.084       .  S
C1247      C1248   1.406       .  A
C1247      H1256   1.083       .  S
C1248      C1254   1.410       .  A
C1248      C1249   1.413       .  A
C1249      C1251   1.405       .  A
C1249      C1250   1.407       .  A
C1250      C3801   1.410       .  A
C1250      H3813   1.084       .  S
C1251      C1252   1.401       .  A
C1251      H1258   1.083       .  S
C1252      C1253   1.403       .  A
C1252      H1259   1.083       .  S
C1253      C1254   1.409       .  A
C1254      H1260   1.084       .  S
H1257      C3806   1.083       .  S
C1261      C1262   1.404       .  A
C1261      C1266   1.412       .  A
C1262      C1263   1.400       .  A
C1262      H1271   1.083       .  S
C1263      C1264   1.405       .  A
C1263      H1272   1.083       .  S
C1264      C1270   1.406       .  A
C1264      C1265   1.412       .  A
C1265      C1267   1.404       .  A
C1265      C1266   1.402       .  A
C1266      H1273   1.084       .  S
C1267      C1268   1.398       .  A
C1267      H1274   1.083       .  S
C1268      C1269   1.404       .  A
C1268      H1275   1.084       .  S
C1269      C1270   1.408       .  A
C1270      H1276   1.084       .  S
C1277      C1278   1.403       .  A
C1277      C1282   1.413       .  A
C1278      C1279   1.404       .  A
C1278      H1287   1.083       .  S
C1279      C1280   1.407   1_545  A
C1279      H1288   1.083   1_545  S
C1280      C1286   1.414       .  A
C1280      C1281   1.412   1_565  A
C1281      C1283   1.408   1_545  A
C1281      C1282   1.417       .  A
C1282      H1289   1.084       .  S
C1283      C1284   1.407       .  A
C1283      H1290   1.083   1_565  S
C1284      C1285   1.407       .  A
C1284      H1291   1.083       .  S
C1285      C1286   1.417       .  A
C1286      H1292   1.083       .  S
C1293      C1294   1.407       .  A
C1293      C1298   1.415       .  A
C1294      C1295   1.410       .  A
C1294      H1303   1.083       .  S
C1295      C1296   1.410       .  A
C1295      H1304   1.082       .  S
C1296      C1297   1.410       .  A
C1296      C3858   1.416       .  A
C1297      C1299   1.405       .  A
C1297      C1298   1.405       .  A
C1298      H1305   1.083       .  S
C1299      C1300   1.398       .  A
C1299      H1306   1.083       .  S
C1300      C3857   1.402       .  A
C1300      H1307   1.084       .  S
C1301      C1302   1.414       .  A
C1301      C3856   1.403       .  A
C1302      C3852   1.415       .  A
C1302      H1308   1.083   1_556  S
C1309      C1310   1.401       .  A
C1309      C1314   1.404       .  A
C1310      C1311   1.398       .  A
C1310      H1319   1.083       .  S
C1311      C1312   1.405       .  A
C1311      H1320   1.084       .  S
C1312      C1318   1.401       .  A
C1312      C1313   1.413       .  A
C1313      C1315   1.403       .  A
C1313      C1314   1.402       .  A
C1314      H1321   1.085       .  S
C1315      C1316   1.397       .  A
C1315      H1322   1.084       .  S
C1316      C1317   1.404       .  A
C1316      H1323   1.083       .  S
C1317      C1318   1.409       .  A
C1318      H1324   1.085       .  S
C1325      C1326   1.403       .  A
C1325      C1330   1.404       .  A
C1326      C1327   1.397       .  A
C1326      H1335   1.083       .  S
C1327      C1328   1.403       .  A
C1327      H1336   1.084       .  S
C1328      C1334   1.399       .  A
C1328      C1329   1.414       .  A
C1329      C1331   1.401       .  A
C1329      C1330   1.394       .  A
C1330      H1337   1.085       .  S
C1331      C1332   1.393       .  A
C1331      H1338   1.084       .  S
C1332      C1333   1.400       .  A
C1332      H1339   1.084       .  S
C1333      C1334   1.400       .  A
C1334      H1340   1.085       .  S
C1341      C1342   1.406       .  A
C1341      C1346   1.412       .  A
C1342      C1343   1.406       .  A
C1342      H1351   1.083       .  S
C1343      C1344   1.408       .  A
C1343      H1352   1.083       .  S
C1344      C1350   1.413       .  A
C1344      C1345   1.412       .  A
C1345      C1347   1.405       .  A
C1345      C1346   1.407       .  A
C1346      H1353   1.084       .  S
C1347      C1348   1.400       .  A
C1347      H1354   1.083       .  S
C1348      C1349   1.402       .  A
C1348      H1355   1.083       .  S
C1349      C1350   1.413       .  A
C1350      H1356   1.083       .  S
C1357      C2965   1.475   1_554  S
C1357      C1358   1.402       .  A
C1357      C1362   1.409       .  A
C1358      C1359   1.399       .  A
C1358      H1367   1.083       .  S
C1359      C1360   1.404       .  A
C1359      H1368   1.083       .  S
C1360      C1366   1.406       .  A
C1360      C1361   1.413       .  A
C1361      C1363   1.405       .  A
C1361      C1362   1.409       .  A
C1362      H1369   1.084   1_554  S
C1363      C1364   1.402       .  A
C1363      H1370   1.083   1_554  S
C1364      C1365   1.406       .  A
C1364      H1371   1.083       .  S
C1365      C1366   1.411       .  A
C1366      H1372   1.084       .  S
C1373      C1374   1.412       .  A
C1373      C3934   1.403   1_554  A
C1374      C1375   1.397       .  A
C1374      H1383   1.083       .  S
C1375      C3932   1.399   1_554  A
C1375      H1384   1.084       .  S
C1376      C1382   1.413       .  A
C1376      C1377   1.418       .  A
C1376      C3931   1.402       .  A
C1377      C1379   1.396       .  A
C1377      C1378   1.407       .  A
C1378      C3929   1.401       .  A
C1378      H1385   1.085       .  S
C1379      C1380   1.392       .  A
C1379      H1386   1.084       .  S
C1380      C1381   1.410       .  A
C1380      H1387   1.083       .  S
C1381      C1382   1.407       .  A
C1382      H1388   1.084       .  S
C1389      C1390   1.402       .  A
C1389      C1394   1.414       .  A
C1390      C1391   1.404       .  A
C1390      H1399   1.083       .  S
C1391      C1392   1.409       .  A
C1391      H1400   1.083       .  S
C1392      C1398   1.405       .  A
C1392      C1393   1.409       .  A
C1393      C1395   1.406       .  A
C1393      C1394   1.401       .  A
C1394      H1401   1.084       .  S
C1395      C1396   1.400       .  A
C1395      H1402   1.083       .  S
C1396      C1397   1.403       .  A
C1396      H1403   1.083       .  S
C1397      C1398   1.415       .  A
C1398      H1404   1.084       .  S
C1405      C1406   1.405       .  A
C1405      C1410   1.408       .  A
C1406      C1407   1.403       .  A
C1406      H1415   1.083       .  S
C1407      C1408   1.405       .  A
C1407      H1416   1.083       .  S
C1408      C1414   1.413   1_455  A
C1408      C1409   1.414       .  A
C1409      C1411   1.403       .  A
C1409      C1410   1.409       .  A
C1410      H1417   1.084       .  S
C1411      C1412   1.400   1_455  A
C1411      H1418   1.083       .  S
C1412      C1413   1.407       .  A
C1412      H1419   1.083       .  S
C1413      C1414   1.409       .  A
C1414      H1420   1.084       .  S
C1421      C1422   1.406       .  A
C1421      C1426   1.406       .  A
C1422      C1423   1.399       .  A
C1422      H1431   1.083       .  S
C1423      C1424   1.403       .  A
C1423      H1432   1.084       .  S
C1424      C1430   1.404       .  A
C1424      C1425   1.414       .  A
C1425      C1427   1.402       .  A
C1425      C1426   1.400       .  A
C1426      H1433   1.085       .  S
C1427      C1428   1.395       .  A
C1427      H1434   1.084       .  S
C1428      C3985   1.401       .  A
C1428      H1435   1.083       .  S
C1429      C3984   1.402   1_554  A
C1429      C3986   1.405       .  A
C1430      C3985   1.405       .  A
C1430      H3992   1.085       .  S
H1436      C3986   1.085       .  S
C1437      C1438   1.405       .  A
C1437      C1442   1.412       .  A
C1438      C1439   1.404       .  A
C1438      H1447   1.083       .  S
C1439      C1440   1.406       .  A
C1439      H1448   1.083       .  S
C1440      C1446   1.408       .  A
C1440      C1441   1.411       .  A
C1441      C1443   1.405       .  A
C1441      C1442   1.404       .  A
C1442      H1449   1.083       .  S
C1443      C1444   1.399       .  A
C1443      H1450   1.083       .  S
C1444      C1445   1.403       .  A
C1444      H1451   1.083       .  S
C1445      C1446   1.411       .  A
C1446      H1452   1.084       .  S
C1453      C1454   1.404       .  A
C1453      C1458   1.403       .  A
C1454      C1455   1.394       .  A
C1454      H1463   1.083       .  S
C1455      C1456   1.400       .  A
C1455      H1464   1.084       .  S
C1456      C1462   1.397       .  A
C1456      C1457   1.415       .  A
C1457      C1459   1.401       .  A
C1457      C1458   1.397       .  A
C1458      H1465   1.085       .  S
C1459      C1460   1.394       .  A
C1459      H1466   1.084       .  S
C1460      C1461   1.402       .  A
C1460      H1467   1.083       .  S
C1461      C1462   1.401       .  A
C1462      H1468   1.085       .  S
C1469      C1470   1.408   1_556  A
C1469      C4030   1.406       .  A
C1470      C1471   1.404   1_554  A
C1470      H1479   1.083       .  S
C1471      C4028   1.404       .  A
C1471      H1480   1.083   1_556  S
C1472      C1478   1.417       .  A
C1472      C1473   1.416       .  A
C1472      C4027   1.402       .  A
C1473      C1475   1.396       .  A
C1473      C1474   1.409       .  A
C1474      C4025   1.404       .  A
C1474      H1481   1.084       .  S
C1475      C1476   1.394       .  A
C1475      H1482   1.084       .  S
C1476      C1477   1.413       .  A
C1476      H1483   1.083       .  S
C1477      C1478   1.409       .  A
C1478      H1484   1.084       .  S
C1485      C1486   1.409       .  A
C1485      C1490   1.410       .  A
C1486      C1487   1.394       .  A
C1486      H1495   1.083       .  S
C1487      C1488   1.397       .  A
C1487      H1496   1.084       .  S
C1488      C1494   1.408       .  A
C1488      C1489   1.417       .  A
C1489      C1491   1.404       .  A
C1489      C1490   1.417       .  A
C1490      H1497   1.084       .  S
C1491      C1492   1.404       .  A
C1491      H1498   1.084       .  S
C1492      C1493   1.409       .  A
C1492      H1499   1.083       .  S
C1493      C1494   1.402       .  A
C1494      H1500   1.085       .  S
C1501      C1502   1.403       .  A
C1501      C1506   1.398       .  A
C1502      C1503   1.401       .  A
C1502      H1511   1.083       .  S
C1503      C1504   1.405       .  A
C1503      H1512   1.084       .  S
C1504      C1510   1.404       .  A
C1504      C1505   1.415       .  A
C1505      C1507   1.396       .  A
C1505      C1506   1.391       .  A
C1506      H1513   1.086       .  S
C1507      C1508   1.386       .  A
C1507      H1514   1.084       .  S
C1508      C1509   1.403       .  A
C1508      H1515   1.084       .  S
C1509      C1510   1.405       .  A
C1510      H1516   1.084       .  S
C1517      C1518   1.404       .  A
C1517      C1522   1.413       .  A
C1518      C1519   1.401       .  A
C1518      H1527   1.083       .  S
C1519      C1520   1.406       .  A
C1519      H1528   1.083       .  S
C1520      C1526   1.403       .  A
C1520      C1521   1.410       .  A
C1521      C1523   1.405       .  A
C1521      C1522   1.401       .  A
C1522      H1529   1.084       .  S
C1523      C4080   1.399       .  A
C1523      H1530   1.084       .  S
C1524      C1525   1.401       .  A
C1524      C4079   1.398       .  A
C1524      H1531   1.083       .  S
C1525      C4082   1.411       .  A
C1526      C4081   1.412       .  A
C1526      H1532   1.084       .  S
C1533      C1534   1.403       .  A
C1533      C1538   1.416       .  A
C1534      C1535   1.404       .  A
C1534      H1543   1.083       .  S
C1535      C1536   1.408       .  A
C1535      H1544   1.083       .  S
C1536      C1542   1.409       .  A
C1536      C1537   1.410       .  A
C1537      C1539   1.408       .  A
C1537      C1538   1.410       .  A
C1538      H1545   1.084       .  S
C1539      C1540   1.405       .  A
C1539      H1546   1.083       .  S
C1540      C1541   1.405       .  A
C1540      H1547   1.083       .  S
C1541      C1542   1.416       .  A
C1542      H1548   1.083       .  S
C1549      C1550   1.408       .  A
C1549      C1554   1.417       .  A
C1550      C1551   1.405       .  A
C1550      H1559   1.083       .  S
C1551      C1552   1.406       .  A
C1551      H1560   1.083       .  S
C1552      C1558   1.415       .  A
C1552      C1553   1.411       .  A
C1553      C1555   1.406       .  A
C1553      C1554   1.415       .  A
C1554      H1561   1.084       .  S
C1555      C1556   1.405       .  A
C1555      H1562   1.083       .  S
C1556      C1557   1.407       .  A
C1556      H1563   1.083       .  S
C1557      C1558   1.417       .  A
C1558      H1564   1.084       .  S
C1565      C2900   1.489   1_554  S
C1565      C1570   1.406       .  A
C1565      C4122   1.410       .  A
C1566      C1567   1.401       .  A
C1566      C4121   1.412       .  A
C1566      H1575   1.083       .  S
C1567      C4124   1.401       .  A
C1567      H1576   1.083       .  S
C1568      C1574   1.419       .  A
C1568      C1569   1.418       .  A
C1568      C4123   1.399       .  A
C1569      C1571   1.397       .  A
C1569      C1570   1.416       .  A
C1570      H1577   1.084       .  S
C1571      C1572   1.397       .  A
C1571      H1578   1.084       .  S
C1572      C1573   1.416       .  A
C1572      H1579   1.083       .  S
C1573      C1574   1.408       .  A
C1574      H1580   1.084       .  S
C1581      C1582   1.403       .  A
C1581      C1586   1.413       .  A
C1582      C1583   1.401       .  A
C1582      H1591   1.083       .  S
C1583      C1584   1.406       .  A
C1583      H1592   1.083       .  S
C1584      C1590   1.401       .  A
C1584      C1585   1.409       .  A
C1585      C1587   1.408       .  A
C1585      C1586   1.400       .  A
C1586      H1593   1.083       .  S
C1587      C1588   1.401       .  A
C1587      H1594   1.083       .  S
C1588      C1589   1.400       .  A
C1588      H1595   1.083       .  S
C1589      C1590   1.409       .  A
C1590      H1596   1.084       .  S
C1597      C2852   1.495       .  S
C1597      C1598   1.411       .  A
C1597      C1602   1.405       .  A
C1598      C1599   1.407       .  A
C1598      H4163   1.083       .  S
C1599      C1600   1.405       .  A
C1599      H1608   1.083       .  S
C1600      C1606   1.423       .  A
C1600      C1601   1.417       .  A
C1601      C1603   1.396       .  A
C1601      C1602   1.410       .  A
C1602      H1609   1.084       .  S
C1603      C1604   1.394       .  A
C1603      H1610   1.084       .  S
C1604      C1605   1.411       .  A
C1604      H1611   1.084       .  S
C1605      C1606   1.412       .  A
C1606      H1612   1.083       .  S
H1607      C4154   1.083       .  S
C1613      C1614   1.400       .  A
C1613      C1618   1.401       .  A
C1614      C1615   1.393       .  A
C1614      H1623   1.083       .  S
C1615      C1616   1.402       .  A
C1615      H1624   1.084       .  S
C1616      C1622   1.394       .  A
C1616      C1617   1.413       .  A
C1617      C1619   1.403       .  A
C1617      C1618   1.399       .  A
C1618      H1625   1.085       .  S
C1619      C1620   1.397       .  A
C1619      H1626   1.084       .  S
C1620      C1621   1.404       .  A
C1620      H1627   1.083       .  S
C1621      C1622   1.406       .  A
C1622      H1628   1.085       .  S
C1629      C1630   1.401       .  A
C1629      C1634   1.401       .  A
C1630      C1631   1.388       .  A
C1630      H1639   1.084       .  S
C1631      C1632   1.397       .  A
C1631      H1640   1.084       .  S
C1632      C1638   1.393       .  A
C1632      C1633   1.417       .  A
C1633      C1635   1.404   1_554  A
C1633      C1634   1.403       .  A
C1634      H1641   1.085   1_554  S
C1635      C1636   1.399   1_556  A
C1635      H1642   1.084       .  S
C1636      C1637   1.402       .  A
C1636      H1643   1.083   1_554  S
C1637      C1638   1.396       .  A
C1638      H1644   1.086       .  S
C1645      C1646   1.406       .  A
C1645      C1650   1.411       .  A
C1646      C1647   1.406       .  A
C1646      H1655   1.083       .  S
C1647      C1648   1.407       .  A
C1647      H1656   1.082       .  S
C1648      C1654   1.413       .  A
C1648      C1649   1.412       .  A
C1649      C1651   1.403       .  A
C1649      C1650   1.406       .  A
C1650      H1657   1.083       .  S
C1651      C1652   1.398       .  A
C1651      H1658   1.083       .  S
C1652      C1653   1.404       .  A
C1652      H1659   1.084       .  S
C1653      C2853   1.484       .  S
C1653      C1654   1.413       .  A
C1654      H1660   1.083       .  S
C1661      C1662   1.406       .  A
C1661      C1666   1.405       .  A
C1662      C1663   1.398       .  A
C1662      H1671   1.083       .  S
C1663      C1664   1.401       .  A
C1663      H1672   1.084       .  S
C1664      C1670   1.412       .  A
C1664      C1665   1.418       .  A
C1665      C1667   1.400       .  A
C1665      C1666   1.412       .  A
C1666      H1673   1.084       .  S
C1667      C1668   1.398       .  A
C1667      H1674   1.084       .  S
C1668      C1669   1.407       .  A
C1668      H1675   1.083       .  S
C1669      C1670   1.405       .  A
C1670      H1676   1.084       .  S
C1677      C1678   1.403       .  A
C1677      C1682   1.408       .  A
C1678      C1679   1.404       .  A
C1678      H1687   1.083       .  S
C1679      C1680   1.406   1_655  A
C1679      H1688   1.083   1_655  S
C1680      C1686   1.412       .  A
C1680      C1681   1.414   1_455  A
C1681      C1683   1.403   1_655  A
C1681      C1682   1.410       .  A
C1682      H1689   1.084       .  S
C1683      C1684   1.400       .  A
C1683      H1690   1.083   1_455  S
C1684      C1685   1.407       .  A
C1684      H1691   1.083       .  S
C1685      C1686   1.412       .  A
C1686      H1692   1.084       .  S
C1693      C1694   1.403       .  A
C1693      C1698   1.405       .  A
C1694      C1695   1.389       .  A
C1694      H1703   1.083       .  S
C1695      C1696   1.398       .  A
C1695      H1704   1.084       .  S
C1696      C1702   1.389       .  A
C1696      C1697   1.414       .  A
C1697      C1699   1.405       .  A
C1697      C1698   1.399       .  A
C1698      H1705   1.084       .  S
C1699      C1700   1.399       .  A
C1699      H1706   1.084       .  S
C1700      C1701   1.402       .  A
C1700      H1707   1.083       .  S
C1701      C1702   1.397       .  A
C1702      H1708   1.086       .  S
C1709      C1710   1.403       .  A
C1709      C1714   1.418       .  A
C1710      C1711   1.404       .  A
C1710      H1719   1.083       .  S
C1711      C1712   1.408       .  A
C1711      H1720   1.083       .  S
C1712      C1718   1.407       .  A
C1712      C1713   1.408       .  A
C1713      C1715   1.409       .  A
C1713      C1714   1.408       .  A
C1714      H1721   1.084       .  S
C1715      C1716   1.405       .  A
C1715      H1722   1.083       .  S
C1716      C1717   1.405       .  A
C1716      H1723   1.083       .  S
C1717      C1718   1.417       .  A
C1718      H1724   1.083       .  S
C1725      C1726   1.406       .  A
C1725      C1730   1.402       .  A
C1726      C1727   1.398       .  A
C1726      H1735   1.083       .  S
C1727      C1728   1.402       .  A
C1727      H1736   1.084       .  S
C1728      C1734   1.408       .  A
C1728      C1729   1.416       .  A
C1729      C1731   1.397       .  A
C1729      C1730   1.403       .  A
C1730      H1737   1.085       .  S
C1731      C1732   1.393       .  A
C1731      H1738   1.084       .  S
C1732      C1733   1.410       .  A
C1732      H1739   1.083       .  S
C1733      C1734   1.406       .  A
C1734      H1740   1.084       .  S
C1741      C1742   1.408       .  A
C1741      C1746   1.412       .  A
C1742      C1743   1.403       .  A
C1742      H1751   1.083       .  S
C1743      C1744   1.405       .  A
C1743      H1752   1.083       .  S
C1744      C1750   1.411       .  A
C1744      C1745   1.411       .  A
C1745      C1747   1.404       .  A
C1745      C1746   1.410       .  A
C1746      H1753   1.084       .  S
C1747      C1748   1.402       .  A
C1747      H1754   1.083       .  S
C1748      C1749   1.407       .  A
C1748      H1755   1.083       .  S
C1749      C1750   1.415       .  A
C1750      H1756   1.084       .  S
C1757      C1758   1.403       .  A
C1757      C1762   1.401       .  A
C1758      C1759   1.386       .  A
C1758      H1767   1.084       .  S
C1759      C1760   1.396       .  A
C1759      H1768   1.084       .  S
C1760      C1766   1.391       .  A
C1760      C1761   1.417       .  A
C1761      C1763   1.403       .  A
C1761      C1762   1.402       .  A
C1762      H1769   1.084       .  S
C1763      C1764   1.398       .  A
C1763      H1770   1.084       .  S
C1764      C1765   1.403       .  A
C1764      H1771   1.083       .  S
C1765      C1766   1.397       .  A
C1766      H1772   1.086       .  S
C1773      C1774   1.404       .  A
C1773      C1778   1.416       .  A
C1774      C1775   1.403       .  A
C1774      H1783   1.083       .  S
C1775      C1776   1.407       .  A
C1775      H1784   1.083       .  S
C1776      C1782   1.406       .  A
C1776      C1777   1.409       .  A
C1777      C1779   1.407       .  A
C1777      C1778   1.407       .  A
C1778      H1785   1.084       .  S
C1779      C1780   1.404       .  A
C1779      H1786   1.083       .  S
C1780      C1781   1.405       .  A
C1780      H1787   1.083       .  S
C1781      C2901   1.491   1_554  S
C1781      C1782   1.415       .  A
C1782      H4344   1.084   1_554  S
H1788      C4338   1.084       .  S
C1789      C1790   1.403       .  A
C1789      C1794   1.409       .  A
C1790      C1791   1.398       .  A
C1790      H1799   1.083       .  S
C1791      C1792   1.404       .  A
C1791      H1800   1.083       .  S
C1792      C1798   1.400       .  A
C1792      C1793   1.411       .  A
C1793      C1795   1.404       .  A
C1793      C1794   1.400       .  A
C1794      H1801   1.084       .  S
C1795      C1796   1.398       .  A
C1795      H1802   1.083       .  S
C1796      C1797   1.403       .  A
C1796      H1803   1.083       .  S
C1797      C1798   1.409       .  A
C1798      H1804   1.084       .  S
C1805      C1806   1.403       .  A
C1805      C1810   1.416       .  A
C1806      C1807   1.401       .  A
C1806      H1815   1.083       .  S
C1807      C1808   1.406       .  A
C1807      H1816   1.083       .  S
C1808      C1814   1.406       .  A
C1808      C1809   1.409       .  A
C1809      C1811   1.408       .  A
C1809      C1810   1.410       .  A
C1810      H1817   1.084       .  S
C1811      C1812   1.406       .  A
C1811      H1818   1.083       .  S
C1812      C1813   1.405       .  A
C1812      H1819   1.083       .  S
C1813      C1814   1.415       .  A
C1814      H1820   1.084       .  S
C1821      C2783   1.476   1_554  S
C1821      C1822   1.402       .  A
C1821      C1826   1.411       .  A
C1822      C1823   1.399       .  A
C1822      H4387   1.083       .  S
C1823      C1824   1.406       .  A
C1823      H1832   1.083       .  S
C1824      C1830   1.399       .  A
C1824      C1825   1.409       .  A
C1825      C1827   1.406       .  A
C1825      C1826   1.400       .  A
C1826      H1833   1.084   1_554  S
C1827      C1828   1.400       .  A
C1827      H1834   1.083   1_554  S
C1828      C1829   1.403       .  A
C1828      H1835   1.083       .  S
C1829      C1830   1.412       .  A
C1830      H1836   1.083       .  S
H1831      C4378   1.083       .  S
C1837      C1838   1.404       .  A
C1837      C1842   1.403       .  A
C1838      C1839   1.389       .  A
C1838      H1847   1.083       .  S
C1839      C1840   1.398       .  A
C1839      H1848   1.084       .  S
C1840      C1846   1.390       .  A
C1840      C1841   1.415       .  A
C1841      C1843   1.403       .  A
C1841      C1842   1.396       .  A
C1842      H1849   1.084       .  S
C1843      C1844   1.395       .  A
C1843      H1850   1.084       .  S
C1844      C1845   1.400       .  A
C1844      H1851   1.084       .  S
C1845      C1846   1.394       .  A
C1846      H1852   1.086       .  S
C1853      C1854   1.407       .  A
C1853      C1858   1.414       .  A
C1854      C1855   1.402       .  A
C1854      H1863   1.083       .  S
C1855      C1856   1.405       .  A
C1855      H1864   1.083       .  S
C1856      C1862   1.408       .  A
C1856      C1857   1.410       .  A
C1857      C1859   1.406       .  A
C1857      C1858   1.409       .  A
C1858      H4421   1.083       .  S
C1859      C1860   1.403       .  A
C1859      H4422   1.083       .  S
C1860      C1861   1.405       .  A
C1860      H1867   1.083       .  S
C1861      C1862   1.414       .  A
C1862      H1868   1.084       .  S
H1865      C4414   1.083       .  S
H1866      C4415   1.083       .  S
C1869      C1870   1.404       .  A
C1869      C1874   1.413       .  A
C1870      C1871   1.403       .  A
C1870      H1879   1.084       .  S
C1871      C1872   1.406       .  A
C1871      H1880   1.082       .  S
C1872      C1878   1.411       .  A
C1872      C1873   1.412       .  A
C1873      C1875   1.408   1_565  A
C1873      C1874   1.413       .  A
C1874      H1881   1.083       .  S
C1875      C1876   1.406       .  A
C1875      H1882   1.082       .  S
C1876      C1877   1.403       .  A
C1876      H1883   1.083       .  S
C1877      C1878   1.411   1_545  A
C1878      H1884   1.083       .  S
C1885      C1886   1.405       .  A
C1885      C1890   1.411       .  A
C1886      C1887   1.401       .  A
C1886      H1895   1.083       .  S
C1887      C1888   1.405       .  A
C1887      H1896   1.083       .  S
C1888      C1894   1.405   1_565  A
C1888      C1889   1.412       .  A
C1889      C1891   1.405   1_565  A
C1889      C1890   1.402       .  A
C1890      H1897   1.084       .  S
C1891      C1892   1.398       .  A
C1891      H1898   1.083       .  S
C1892      C1893   1.401       .  A
C1892      H1899   1.083       .  S
C1893      C1894   1.406       .  A
C1894      H1900   1.084       .  S
C1901      C1906   1.402       .  A
C1901      C4458   1.404       .  A
C1902      C1903   1.386       .  A
C1902      C4457   1.401       .  A
C1902      H1911   1.083       .  S
C1903      C1904   1.398       .  A
C1903      H1912   1.084       .  S
C1904      C1910   1.385   1_565  A
C1904      C4461   1.412   1_565  A
C1905      C1907   1.401       .  A
C1905      C1906   1.393   1_545  A
C1905      C4460   1.413   1_545  A
C1906      H1913   1.084       .  S
C1907      C1908   1.394       .  A
C1907      H1914   1.084       .  S
C1908      C4465   1.404       .  A
C1908      H1915   1.083       .  S
C1909      C1910   1.401       .  A
C1909      C4464   1.403       .  A
C1910      H1916   1.085       .  S
C1917      C1918   1.407       .  A
C1917      C1922   1.400       .  A
C1918      C1919   1.401       .  A
C1918      H1927   1.083       .  S
C1919      C1920   1.403       .  A
C1919      H1928   1.084       .  S
C1920      C1926   1.412       .  A
C1920      C1921   1.417       .  A
C1921      C1923   1.396       .  A
C1921      C1922   1.403       .  A
C1922      H1929   1.085       .  S
C1923      C1924   1.392       .  A
C1923      H1930   1.084       .  S
C1924      C1925   1.410       .  A
C1924      H1931   1.083       .  S
C1925      C1926   1.407       .  A
C1926      H1932   1.084       .  S
C1933      C1934   1.404       .  A
C1933      C1938   1.410       .  A
C1934      C1935   1.405       .  A
C1934      H1943   1.083       .  S
C1935      C1936   1.408       .  A
C1935      H1944   1.083       .  S
C1936      C1942   1.412       .  A
C1936      C1937   1.412       .  A
C1937      C1939   1.407       .  A
C1937      C1938   1.411       .  A
C1938      H1945   1.084       .  S
C1939      C1940   1.404       .  A
C1939      H1946   1.083       .  S
C1940      C1941   1.403       .  A
C1940      H4503   1.083       .  S
C1941      C3106   1.488   1_554  S
C1941      C1942   1.414       .  A
C1942      H1948   1.084   1_554  S
H1947      C4496   1.083       .  S
C1949      C1950   1.402       .  A
C1949      C1954   1.405       .  A
C1950      C1951   1.389       .  A
C1950      H1959   1.083       .  S
C1951      C1952   1.399       .  A
C1951      H1960   1.085       .  S
C1952      C1958   1.390       .  A
C1952      C1953   1.415       .  A
C1953      C1955   1.406       .  A
C1953      C1954   1.401       .  A
C1954      H1961   1.085       .  S
C1955      C1956   1.401       .  A
C1955      H1962   1.084       .  S
C1956      C1957   1.402       .  A
C1956      H1963   1.083       .  S
C1957      C1958   1.399       .  A
C1958      H1964   1.086       .  S
C1965      C1966   1.403       .  A
C1965      C1970   1.410       .  A
C1966      C1967   1.403       .  A
C1966      H1975   1.083       .  S
C1967      C1968   1.407       .  A
C1967      H1976   1.083       .  S
C1968      C1974   1.409       .  A
C1968      C1969   1.412       .  A
C1969      C1971   1.407       .  A
C1969      C1970   1.411       .  A
C1970      H1977   1.084       .  S
C1971      C1972   1.404       .  A
C1971      H1978   1.083       .  S
C1972      C1973   1.405       .  A
C1972      H1979   1.083       .  S
C1973      C1974   1.413       .  A
C1974      H1980   1.084       .  S
C1981      C1982   1.406       .  A
C1981      C1986   1.414       .  A
C1982      C1983   1.404       .  A
C1982      H1991   1.083       .  S
C1983      C1984   1.406       .  A
C1983      H1992   1.083       .  S
C1984      C1990   1.412       .  A
C1984      C1985   1.412       .  A
C1985      C1987   1.407       .  A
C1985      C1986   1.412       .  A
C1986      H1993   1.083       .  S
C1987      C1988   1.404       .  A
C1987      H1994   1.083       .  S
C1988      C1989   1.403       .  A
C1988      H1995   1.083       .  S
C1989      C1990   1.411       .  A
C1990      H1996   1.084       .  S
C1997      C1998   1.411       .  A
C1997      C2002   1.416       .  A
C1998      C1999   1.396       .  A
C1998      H2007   1.083       .  S
C1999      C2000   1.399       .  A
C1999      H2008   1.084       .  S
C2000      C2006   1.411       .  A
C2000      C2001   1.414       .  A
C2001      C2003   1.407       .  A
C2001      C2002   1.422       .  A
C2002      H2009   1.083       .  S
C2003      C2004   1.409       .  A
C2003      H2010   1.083       .  S
C2004      C2005   1.409       .  A
C2004      H2011   1.083       .  S
C2005      C2006   1.411       .  A
C2006      H2012   1.084       .  S
C2013      C2014   1.403       .  A
C2013      C2018   1.397       .  A
C2014      C2015   1.398       .  A
C2014      H2023   1.083       .  S
C2015      C2016   1.404   1_545  A
C2015      H2024   1.084   1_545  S
C2016      C2022   1.397       .  A
C2016      C2017   1.415   1_565  A
C2017      C2019   1.396       .  A
C2017      C2018   1.386       .  A
C2018      H2025   1.086       .  S
C2019      C2020   1.385   1_545  A
C2019      H2026   1.085       .  S
C2020      C2021   1.402       .  A
C2020      H2027   1.084       .  S
C2021      C2022   1.402       .  A
C2022      H2028   1.085       .  S
C2029      C2030   1.405       .  A
C2029      C2034   1.412       .  A
C2030      C2031   1.409       .  A
C2030      H2039   1.083       .  S
C2031      C2032   1.410       .  A
C2031      H2040   1.082       .  S
C2032      C2038   1.414   1_545  A
C2032      C2033   1.411   1_545  A
C2033      C2035   1.403       .  A
C2033      C2034   1.403   1_565  A
C2034      H2041   1.084       .  S
C2035      C2036   1.397       .  A
C2035      H2042   1.083       .  S
C2036      C2037   1.403       .  A
C2036      H2043   1.084       .  S
C2037      C2038   1.415       .  A
C2038      H2044   1.083       .  S
C2045      C2046   1.406       .  A
C2045      C2050   1.408       .  A
C2046      C2047   1.403       .  A
C2046      H2055   1.083       .  S
C2047      C2048   1.406   1_545  A
C2047      H2056   1.083       .  S
C2048      C2054   1.408       .  A
C2048      C2049   1.413       .  A
C2049      C2051   1.403       .  A
C2049      C2050   1.401   1_565  A
C2050      H2057   1.084       .  S
C2051      C2052   1.395       .  A
C2051      H2058   1.083       .  S
C2052      C2053   1.400       .  A
C2052      H2059   1.084       .  S
C2053      C2054   1.408       .  A
C2054      H2060   1.084       .  S
C2061      C2062   1.403       .  A
C2061      C2066   1.410       .  A
C2062      C2063   1.398       .  A
C2062      H2071   1.084       .  S
C2063      C2064   1.403       .  A
C2063      H2072   1.083       .  S
C2064      C2070   1.404       .  A
C2064      C2065   1.413       .  A
C2065      C2067   1.407       .  A
C2065      C2066   1.411       .  A
C2066      H2073   1.084       .  S
C2067      C2068   1.404       .  A
C2067      H2074   1.083       .  S
C2068      C2069   1.404       .  A
C2068      H2075   1.083       .  S
C2069      C2070   1.410       .  A
C2070      H2076   1.084       .  S
C2077      C2078   1.404       .  A
C2077      C2082   1.406       .  A
C2078      C2079   1.404       .  A
C2078      H2087   1.083       .  S
C2079      C2080   1.406       .  A
C2079      H2088   1.083       .  S
C2080      C2086   1.411       .  A
C2080      C2081   1.413       .  A
C2081      C2083   1.402       .  A
C2081      C2082   1.406       .  A
C2082      H2089   1.084       .  S
C2083      C2084   1.398       .  A
C2083      H2090   1.083       .  S
C2084      C2085   1.404       .  A
C2084      H2091   1.083       .  S
C2085      C2086   1.411       .  A
C2086      H2092   1.084       .  S
C2093      C2094   1.405       .  A
C2093      C2098   1.412       .  A
C2094      C2095   1.396       .  A
C2094      H2103   1.084       .  S
C2095      C2096   1.401       .  A
C2095      H2104   1.083       .  S
C2096      C2102   1.406       .  A
C2096      C2097   1.414       .  A
C2097      C2099   1.409       .  A
C2097      C2098   1.417       .  A
C2098      H2105   1.083       .  S
C2099      C2100   1.409       .  A
C2099      H2106   1.083       .  S
C2100      C2101   1.405       .  A
C2100      H2107   1.083       .  S
C2101      C2102   1.406       .  A
C2102      H2108   1.084       .  S
C2109      C2110   1.403       .  A
C2109      C2114   1.408       .  A
C2110      C2111   1.396       .  A
C2110      H2119   1.083       .  S
C2111      C2112   1.402       .  A
C2111      H2120   1.084       .  S
C2112      C2118   1.402       .  A
C2112      C2113   1.414       .  A
C2113      C2115   1.404       .  A
C2113      C2114   1.405       .  A
C2114      H2121   1.085       .  S
C2115      C2116   1.399       .  A
C2115      H2122   1.084       .  S
C2116      C2117   1.405       .  A
C2116      H2123   1.083       .  S
C2117      C2118   1.405       .  A
C2118      H2124   1.085       .  S
C2125      C2130   1.402       .  A
C2125      C4682   1.404       .  A
C2126      C4681   1.401       .  A
C2126      C4683   1.397       .  A
C2126      H2135   1.083       .  S
C2127      C2128   1.403       .  A
C2127      C4682   1.397       .  A
C2127      H4692   1.083       .  S
C2128      C2134   1.400       .  A
C2128      C2129   1.415       .  A
C2129      C2131   1.400       .  A
C2129      C2130   1.396       .  A
C2130      H2137   1.085       .  S
C2131      C2132   1.391       .  A
C2131      H2138   1.082       .  S
C2132      C2133   1.400       .  A
C2132      H2139   1.084       .  S
C2133      C2134   1.402       .  A
C2134      H2140   1.085       .  S
H2136      C4683   1.084       .  S
C2141      C2142   1.406       .  A
C2141      C2146   1.412       .  A
C2142      C2143   1.409       .  A
C2142      H2151   1.083       .  S
C2143      C2144   1.410       .  A
C2143      H2152   1.083       .  S
C2144      C2150   1.417       .  A
C2144      C2145   1.411       .  A
C2145      C2147   1.405       .  A
C2145      C2146   1.407       .  A
C2146      H2153   1.084       .  S
C2147      C2148   1.400       .  A
C2147      H2154   1.083       .  S
C2148      C2149   1.401       .  A
C2148      H2155   1.083       .  S
C2149      C2150   1.416       .  A
C2150      H2156   1.084       .  S
C2157      C2666   1.488   1_554  S
C2157      C2158   1.405       .  A
C2157      C2162   1.412       .  A
C2158      C2159   1.401       .  A
C2158      H4723   1.083       .  S
C2159      C2160   1.404       .  A
C2159      H2168   1.083       .  S
C2160      C2166   1.405       .  A
C2160      C2161   1.412       .  A
C2161      C2163   1.407       .  A
C2161      C2162   1.407       .  A
C2162      H2169   1.084   1_554  S
C2163      C2164   1.402       .  A
C2163      H2170   1.083   1_554  S
C2164      C2165   1.401       .  A
C2164      H2171   1.083       .  S
C2165      C2166   1.406       .  A
C2166      H2172   1.085       .  S
H2167      C4714   1.083       .  S
C2173      C2174   1.405       .  A
C2173      C2178   1.413       .  A
C2174      C2175   1.400       .  A
C2174      H2183   1.083       .  S
C2175      C2176   1.404       .  A
C2175      H2184   1.083       .  S
C2176      C2182   1.408       .  A
C2176      C2177   1.413       .  A
C2177      C2179   1.407       .  A
C2177      C2178   1.412       .  A
C2178      H2185   1.084       .  S
C2179      C2180   1.404       .  A
C2179      H2186   1.083       .  S
C2180      C2181   1.403       .  A
C2180      H2187   1.083       .  S
C2181      C2182   1.408       .  A
C2182      H2188   1.084       .  S
C2189      C2190   1.405       .  A
C2189      C2194   1.401       .  A
C2190      C2191   1.398       .  A
C2190      H2199   1.083       .  S
C2191      C2192   1.403       .  A
C2191      H2200   1.084       .  S
C2192      C2198   1.398       .  A
C2192      C2193   1.412       .  A
C2193      C2195   1.397       .  A
C2193      C2194   1.388       .  A
C2194      H2201   1.085       .  S
C2195      C2196   1.386       .  A
C2195      H2202   1.084       .  S
C2196      C2197   1.404       .  A
C2196      H2203   1.083       .  S
C2197      C2198   1.406       .  A
C2198      H2204   1.084       .  S
C2205      C2206   1.407       .  A
C2205      C2210   1.412       .  A
C2206      C2207   1.410       .  A
C2206      H2215   1.083       .  S
C2207      C2208   1.410       .  A
C2207      H2216   1.082       .  S
C2208      C2214   1.418       .  A
C2208      C2209   1.411       .  A
C2209      C2211   1.402       .  A
C2209      C2210   1.406       .  A
C2210      H2217   1.083       .  S
C2211      C2212   1.397       .  A
C2211      H2218   1.083       .  S
C2212      C2213   1.404       .  A
C2212      H2219   1.084       .  S
C2213      C2214   1.417       .  A
C2214      H2220   1.083       .  S
C2221      C2670   1.476   1_554  S
C2221      C2222   1.404       .  A
C2221      C2226   1.408       .  A
C2222      C2223   1.398       .  A
C2222      H2231   1.083       .  S
C2223      C2224   1.403       .  A
C2223      H2232   1.084       .  S
C2224      C2230   1.402       .  A
C2224      C2225   1.413       .  A
C2225      C2227   1.405       .  A
C2225      C2226   1.403       .  A
C2226      H4789   1.085   1_554  S
C2227      C2228   1.399       .  A
C2227      H2234   1.084       .  S
C2228      C2229   1.401       .  A
C2228      H2235   1.083       .  S
C2229      C2230   1.405       .  A
C2230      H2236   1.085       .  S
H2233      C4782   1.085       .  S
C2237      C2238   1.402       .  A
C2237      C2242   1.399       .  A
C2238      C2239   1.393       .  A
C2238      H2247   1.083       .  S
C2239      C2240   1.401       .  A
C2239      H2248   1.084       .  S
C2240      C2246   1.396       .  A
C2240      C2241   1.415       .  A
C2241      C2243   1.400       .  A
C2241      C2242   1.396       .  A
C2242      H2249   1.085       .  S
C2243      C2244   1.393       .  A
C2243      H2250   1.084       .  S
C2244      C2245   1.405       .  A
C2244      H2251   1.083       .  S
C2245      C2246   1.401       .  A
C2246      H2252   1.085       .  S
C2253      C2254   1.406       .  A
C2253      C2258   1.407       .  A
C2254      C2255   1.394       .  A
C2254      H2263   1.083       .  S
C2255      C2256   1.400       .  A
C2255      H2264   1.085       .  S
C2256      C2262   1.400       .  A
C2256      C2257   1.414       .  A
C2257      C2259   1.405       .  A
C2257      C2258   1.406       .  A
C2258      H2265   1.085       .  S
C2259      C2260   1.401       .  A
C2259      H2266   1.084       .  S
C2260      C2261   1.403       .  A
C2260      H2267   1.083       .  S
C2261      C2262   1.403       .  A
C2262      H2268   1.086       .  S
C2269      C2270   1.405       .  A
C2269      C2274   1.411       .  A
C2270      C2271   1.403       .  A
C2270      H2279   1.083       .  S
C2271      C2272   1.405       .  A
C2271      H2280   1.083       .  S
C2272      C2278   1.414       .  A
C2272      C2273   1.414       .  A
C2273      C2275   1.404       .  A
C2273      C2274   1.414       .  A
C2274      H2281   1.084       .  S
C2275      C2276   1.403       .  A
C2275      H2282   1.083       .  S
C2276      C2277   1.408       .  A
C2276      H2283   1.083       .  S
C2277      C2966   1.496       .  S
C2277      C2278   1.412       .  A
C2278      H4840   1.083   1_554  S
H2284      C4834   1.083       .  S
C2285      C2286   1.406       .  A
C2285      C2290   1.401       .  A
C2286      C2287   1.398       .  A
C2286      H2295   1.084       .  S
C2287      C2288   1.402       .  A
C2287      H2296   1.084       .  S
C2288      C2294   1.410       .  A
C2288      C2289   1.418       .  A
C2289      C2291   1.400       .  A
C2289      C2290   1.407       .  A
C2290      H2297   1.085       .  S
C2291      C2292   1.396       .  A
C2291      H2298   1.084       .  S
C2292      C2293   1.406       .  A
C2292      H2299   1.084       .  S
C2293      C2294   1.404       .  A
C2294      H2300   1.084       .  S
C2301      C2781   1.490   1_554  S
C2301      C2302   1.406       .  A
C2301      C2306   1.411       .  A
C2302      C2303   1.405       .  A
C2302      H2311   1.083       .  S
C2303      C2304   1.407       .  A
C2303      H2312   1.083       .  S
C2304      C2310   1.411       .  A
C2304      C2305   1.412       .  A
C2305      C2307   1.404       .  A
C2305      C2306   1.405       .  A
C2306      H4869   1.084   1_554  S
C2307      C2308   1.399       .  A
C2307      H2314   1.083   1_554  S
C2308      C2309   1.402       .  A
C2308      H2315   1.084       .  S
C2309      C2310   1.410       .  A
C2310      H2316   1.084       .  S
H2313      C4862   1.084       .  S
C2317      C2318   1.405       .  A
C2317      C2322   1.412       .  A
C2318      C2319   1.401       .  A
C2318      H2327   1.083       .  S
C2319      C2320   1.404       .  A
C2319      H2328   1.083       .  S
C2320      C2326   1.409       .  A
C2320      C2321   1.413       .  A
C2321      C2323   1.407       .  A
C2321      C2322   1.411       .  A
C2322      H2329   1.084       .  S
C2323      C2324   1.404       .  A
C2323      H2330   1.083       .  S
C2324      C2325   1.403       .  A
C2324      H2331   1.083       .  S
C2325      C2326   1.409       .  A
C2326      H2332   1.084       .  S
C2333      C2334   1.406       .  A
C2333      C2338   1.414       .  A
C2334      C2335   1.407       .  A
C2334      H2343   1.083       .  S
C2335      C2336   1.408       .  A
C2335      H2344   1.082       .  S
C2336      C2342   1.414   1_455  A
C2336      C2337   1.412   1_455  A
C2337      C2339   1.404       .  A
C2337      C2338   1.406   1_655  A
C2338      H2345   1.083       .  S
C2339      C2340   1.398       .  A
C2339      H2346   1.083       .  S
C2340      C2341   1.403       .  A
C2340      H2347   1.084       .  S
C2341      C2342   1.412       .  A
C2342      H2348   1.083       .  S
C2349      C2350   1.404       .  A
C2349      C2354   1.401       .  A
C2350      C2351   1.397       .  A
C2350      H2359   1.083       .  S
C2351      C2352   1.402       .  A
C2351      H2360   1.084   1_455  S
C2352      C2358   1.404   1_455  A
C2352      C2353   1.416       .  A
C2353      C2355   1.400       .  A
C2353      C2354   1.402       .  A
C2354      H2361   1.085       .  S
C2355      C2356   1.394   1_455  A
C2355      H2362   1.084       .  S
C2356      C2357   1.406       .  A
C2356      H2363   1.083       .  S
C2357      C2358   1.405       .  A
C2358      H2364   1.084       .  S
C2365      C2366   1.404   1_455  A
C2365      C2370   1.402       .  A
C2366      C2367   1.391       .  A
C2366      H2375   1.083       .  S
C2367      C2368   1.400       .  A
C2367      H2376   1.084       .  S
C2368      C2374   1.390       .  A
C2368      C2369   1.412   1_655  A
C2369      C2371   1.400       .  A
C2369      C2370   1.391       .  A
C2370      H2377   1.085       .  S
C2371      C2372   1.392   1_455  A
C2371      H2378   1.084       .  S
C2372      C2373   1.404       .  A
C2372      H2379   1.083       .  S
C2373      C2374   1.402       .  A
C2374      H2380   1.085       .  S
C2381      C2382   1.403       .  A
C2381      C2386   1.417       .  A
C2382      C2383   1.400       .  A
C2382      H2391   1.083       .  S
C2383      C2384   1.406       .  A
C2383      H2392   1.083       .  S
C2384      C2390   1.401       .  A
C2384      C2385   1.408       .  A
C2385      C2387   1.410       .  A
C2385      C2386   1.407       .  A
C2386      H2393   1.083       .  S
C2387      C2388   1.405       .  A
C2387      H2394   1.083       .  S
C2388      C2389   1.403       .  A
C2388      H2395   1.083       .  S
C2389      C2390   1.415       .  A
C2390      H2396   1.084       .  S
C2397      C2598   1.486   1_554  S
C2397      C2398   1.403       .  A
C2397      C2402   1.415       .  A
C2398      C2399   1.402       .  A
C2398      H2407   1.083       .  S
C2399      C2400   1.407       .  A
C2399      H2408   1.083       .  S
C2400      C2406   1.403       .  A
C2400      C2401   1.409       .  A
C2401      C2403   1.407       .  A
C2401      C2402   1.402       .  A
C2402      H4965   1.084   1_554  S
C2403      C2404   1.401       .  A
C2403      H4966   1.083   1_554  S
C2404      C2405   1.402       .  A
C2404      H2411   1.083       .  S
C2405      C2406   1.413       .  A
C2406      H2412   1.084       .  S
H2409      C4958   1.084       .  S
H2410      C4959   1.083       .  S
C2413      C2414   1.405       .  A
C2413      C2418   1.415       .  A
C2414      C2415   1.401       .  A
C2414      H2423   1.083       .  S
C2415      C2416   1.405       .  A
C2415      H2424   1.083       .  S
C2416      C2422   1.406       .  A
C2416      C2417   1.410       .  A
C2417      C2419   1.408       .  A
C2417      C2418   1.409       .  A
C2418      H2425   1.084       .  S
C2419      C2420   1.405       .  A
C2419      H2426   1.083       .  S
C2420      C2421   1.404       .  A
C2420      H2427   1.083       .  S
C2421      C2422   1.414       .  A
C2422      H2428   1.084       .  S
C2429      C2597   1.486   1_554  S
C2429      C2430   1.403       .  A
C2429      C2434   1.414   1_554  A
C2430      C2431   1.402       .  A
C2430      H2439   1.083       .  S
C2431      C2432   1.407       .  A
C2431      H2440   1.083       .  S
C2432      C2438   1.402       .  A
C2432      C2433   1.408       .  A
C2433      C2435   1.407       .  A
C2433      C2434   1.400   1_554  A
C2434      H2441   1.083       .  S
C2435      C2436   1.400       .  A
C2435      H2442   1.083   1_554  S
C2436      C2437   1.402       .  A
C2436      H2443   1.083       .  S
C2437      C2438   1.413       .  A
C2438      H2444   1.083       .  S
C2445      C2446   1.404       .  A
C2445      C2450   1.402       .  A
C2446      C2447   1.398       .  A
C2446      H2455   1.083       .  S
C2447      C2448   1.403       .  A
C2447      H2456   1.084       .  S
C2448      C2454   1.399       .  A
C2448      C2449   1.413       .  A
C2449      C2451   1.398       .  A
C2449      C2450   1.391       .  A
C2450      H2457   1.085       .  S
C2451      C2452   1.389       .  A
C2451      H2458   1.084       .  S
C2452      C2453   1.406       .  A
C2452      H2459   1.083       .  S
C2453      C2454   1.405       .  A
C2454      H2460   1.084       .  S
C2461      C2462   1.402       .  A
C2461      C2466   1.408       .  A
C2462      C2463   1.400       .  A
C2462      H2471   1.084       .  S
C2463      C2464   1.405       .  A
C2463      H2472   1.083       .  S
C2464      C2470   1.408       .  A
C2464      C2465   1.413       .  A
C2465      C2467   1.405       .  A
C2465      C2466   1.411       .  A
C2466      H2473   1.084       .  S
C2467      C2468   1.403       .  A
C2467      H2474   1.083       .  S
C2468      C2469   1.406       .  A
C2468      H2475   1.083       .  S
C2469      C2470   1.412       .  A
C2470      H2476   1.084       .  S
C2477      C2478   1.405       .  A
C2477      C2482   1.412       .  A
C2478      C2479   1.408       .  A
C2478      H2487   1.083       .  S
C2479      C2480   1.409       .  A
C2479      H2488   1.083       .  S
C2480      C2486   1.416       .  A
C2480      C2481   1.412       .  A
C2481      C2483   1.404       .  A
C2481      C2482   1.406       .  A
C2482      H2489   1.084       .  S
C2483      C2484   1.398       .  A
C2483      H2490   1.083       .  S
C2484      C2485   1.402       .  A
C2484      H2491   1.084       .  S
C2485      C2486   1.413       .  A
C2486      H2492   1.083       .  S
C2493      C2494   1.403       .  A
C2493      C2498   1.406       .  A
C2494      C2495   1.406       .  A
C2494      H2503   1.083       .  S
C2495      C2496   1.408       .  A
C2495      H2504   1.083       .  S
C2496      C2502   1.415       .  A
C2496      C2497   1.413       .  A
C2497      C2499   1.402       .  A
C2497      C2498   1.408       .  A
C2498      H2505   1.084       .  S
C2499      C2500   1.399       .  A
C2499      H2506   1.083       .  S
C2500      C2501   1.406       .  A
C2500      H2507   1.083       .  S
C2501      C2502   1.414       .  A
C2502      H2508   1.083       .  S
C2509      C2510   1.402   1_455  A
C2509      C5070   1.404       .  A
C2510      C2511   1.388       .  A
C2510      H2519   1.084       .  S
C2511      C2512   1.397       .  A
C2511      H2520   1.085       .  S
C2512      C2518   1.394       .  A
C2512      C5069   1.417       .  A
C2513      C2515   1.405       .  A
C2513      C2514   1.405   1_655  A
C2513      C5068   1.416       .  A
C2514      C5065   1.404       .  A
C2514      H2521   1.085       .  S
C2515      C2516   1.402       .  A
C2515      H2522   1.084       .  S
C2516      C5073   1.404       .  A
C2516      H2523   1.083       .  S
C2517      C2518   1.399       .  A
C2517      C5072   1.404       .  A
C2518      H2524   1.086       .  S
C2525      C2526   1.404       .  A
C2525      C2530   1.412       .  A
C2526      C2527   1.402       .  A
C2526      H2535   1.084       .  S
C2527      C2528   1.406       .  A
C2527      H2536   1.083       .  S
C2528      C2534   1.407   1_655  A
C2528      C2529   1.412       .  A
C2529      C2531   1.407   1_655  A
C2529      C2530   1.408       .  A
C2530      H2537   1.084       .  S
C2531      C2532   1.403       .  A
C2531      H2538   1.083       .  S
C2532      C2533   1.401       .  A
C2532      H2539   1.083       .  S
C2533      C2534   1.408       .  A
C2534      H2540   1.084       .  S
C2541      C2542   1.402       .  A
C2541      C2546   1.408       .  A
C2542      C2543   1.396       .  A
C2542      H2551   1.083       .  S
C2543      C2544   1.404       .  A
C2543      H2552   1.083       .  S
C2544      C2550   1.398   1_455  A
C2544      C2545   1.411   1_455  A
C2545      C2547   1.405       .  A
C2545      C2546   1.402   1_655  A
C2546      H2553   1.084       .  S
C2547      C2548   1.400       .  A
C2547      H2554   1.083       .  S
C2548      C2549   1.404       .  A
C2548      H2555   1.083       .  S
C2549      C2550   1.410       .  A
C2550      H2556   1.084       .  S
Zn2557     O2562   2.020       .  S
Zn2557     O2573   2.039       .  S
Zn2558     O2563   2.018       .  S
Zn2558     O2565   2.022       .  S
Zn2558     O2569   2.016       .  S
Zn2559     O2564   2.014       .  S
Zn2559     O2567   1.979       .  S
Zn2559     O2570   2.011       .  S
Zn2559     O2561   1.911       .  S
Zn2560     O2571   2.070       .  S
Zn2560     O2572   2.097       .  S
O2562      C2574   1.272       .  A
O2564      C2576   1.271       .  A
O2565      C2574   1.275       .  A
O2566      C2576   1.278       .  A
O2567      C2575   1.271       .  A
O2568      C2577   1.280       .  A
O2569      C2578   1.276       .  A
O2570      C2577   1.276       .  A
O2571      C2578   1.279       .  A
O2572      C2579   1.287       .  A
O2573      C2579   1.280       .  A
C2574      C5097   1.473       .  S
C2575      C5065   1.462       .  S
C2576      C5089   1.481       .  S
C2577      C5017   1.475       .  S
C2578      C5041   1.484       .  S
C2579      C5049   1.488       .  S
Zn2580     O2585   1.942       .  S
Zn2580     O2589   1.962       .  S
Zn2580     O2596   1.955       .  S
Zn2580     O2584   1.918       .  S
Zn2581     O2586   2.088   1_556  S
Zn2581     O2588   2.083       .  S
Zn2581     O2592   2.053       .  S
Zn2581     O2584   1.974       .  S
Zn2582     O2587   1.978       .  S
Zn2582     O2590   1.952       .  S
Zn2582     O2593   1.935       .  S
Zn2582     O2584   1.929       .  S
Zn2583     O2591   2.120       .  S
Zn2583     O2594   2.097       .  S
Zn2583     O2595   2.103       .  S
Zn2583     O2584   1.978       .  S
O2585      C2597   1.264       .  A
O2586      C2598   1.281   1_554  A
O2587      C2599   1.265       .  A
O2588      C2597   1.279       .  A
O2589      C2599   1.267       .  A
O2590      C2598   1.265       .  A
O2591      C2600   1.285       .  A
O2592      C2601   1.284       .  A
O2593      C2600   1.264       .  A
O2594      C2601   1.291       .  A
O2595      C2602   1.283       .  A
O2596      C2602   1.266       .  A
C2599      C5001   1.457       .  S
C2600      C4945   1.491       .  S
C2601      C5057   1.504       .  S
C2602      C4977   1.487       .  S
Zn2603     O2608   1.962       .  S
Zn2603     O2612   1.998       .  S
Zn2603     O2619   1.986       .  S
Zn2603     O2607   1.936       .  S
Zn2604     O2609   2.095       .  S
Zn2604     O2611   2.113       .  S
Zn2604     O2615   2.109       .  S
Zn2604     O2607   1.976       .  S
Zn2605     O2610   2.053       .  S
Zn2605     O2613   2.039       .  S
Zn2605     O2616   2.060       .  S
Zn2605     O2607   1.967       .  S
Zn2606     O2614   1.973       .  S
Zn2606     O2617   1.977       .  S
Zn2606     O2618   1.972       .  S
Zn2606     O2607   1.946       .  S
O2608      C2620   1.268       .  A
O2609      C2621   1.290       .  A
O2610      C2622   1.278       .  A
O2611      C2620   1.284       .  A
O2612      C2622   1.270       .  A
O2613      C2621   1.282       .  A
O2614      C2623   1.266       .  A
O2615      C2624   1.283       .  A
O2616      C2623   1.276       .  A
O2617      C2624   1.268       .  A
O2618      C2625   1.267       .  A
O2619      C2625   1.270       .  A
C2620      C5033   1.496       .  S
C2621      C4873   1.495       .  S
C2622      C5025   1.482       .  S
C2623      C4905   1.473       .  S
C2624      C4889   1.500       .  S
C2625      C4921   1.466       .  S
Zn2626     O2631   2.080       .  S
Zn2626     O2635   2.043       .  S
Zn2626     O2642   2.061       .  S
Zn2626     O2630   1.941       .  S
Zn2627     O2632   1.968       .  S
Zn2627     O2634   1.996       .  S
Zn2627     O2638   1.960       .  S
Zn2627     O2630   1.895       .  S
Zn2628     O2633   2.003       .  S
Zn2628     O2636   2.039       .  S
Zn2628     O2639   2.013       .  S
Zn2628     O2630   1.939       .  S
Zn2629     O2637   2.075       .  S
Zn2629     O2640   2.055       .  S
Zn2629     O2641   2.063       .  S
Zn2629     O2630   1.937       .  S
O2631      C2643   1.280       .  A
O2632      C2644   1.267       .  A
O2633      C2645   1.276       .  A
O2634      C2643   1.271       .  A
O2635      C2645   1.278       .  A
O2636      C2644   1.272       .  A
O2637      C2646   1.282       .  A
O2638      C2647   1.270       .  A
O2639      C2646   1.275       .  A
O2640      C2647   1.278       .  A
O2641      C2648   1.283       .  A
O2642      C2648   1.284       .  A
C2643      C4841   1.483       .  S
C2644      C4793   1.460       .  S
C2645      C4865   1.472       .  S
C2646      C4825   1.491       .  S
C2647      C4809   1.475       .  S
C2648      C4881   1.487       .  S
Zn2649     O2654   1.993       .  S
Zn2649     O2658   1.958       .  S
Zn2649     O2665   1.988       .  S
Zn2649     O2653   1.937       .  S
Zn2650     O2655   2.040       .  S
Zn2650     O2657   2.063       .  S
Zn2650     O2661   2.044       .  S
Zn2650     O2653   1.973       .  S
Zn2651     O2656   2.107       .  S
Zn2651     O2659   2.095       .  S
Zn2651     O2662   2.103       .  S
Zn2651     O2653   1.980       .  S
Zn2652     O2660   1.975       .  S
Zn2652     O2663   1.979       .  S
Zn2652     O2664   1.996       .  S
Zn2652     O2653   1.948       .  S
O2654      C2666   1.270       .  A
O2655      C2667   1.280       .  A
O2656      C2668   1.285       .  A
O2657      C2666   1.279       .  A
O2658      C2668   1.268       .  A
O2659      C2667   1.288       .  A
O2660      C2669   1.269       .  A
O2661      C2670   1.276       .  A
O2662      C2669   1.282       .  A
O2663      C2670   1.269       .  A
O2664      C2671   1.269       .  A
O2665      C2671   1.269       .  A
C2667      C4729   1.496       .  S
C2668      C4697   1.489       .  S
C2669      C4761   1.498       .  S
C2671      C4753   1.472       .  S
Zn2672     O2677   2.069       .  S
Zn2672     O2681   2.077       .  S
Zn2673     O2678   2.010       .  S
Zn2673     O2680   2.006       .  S
Zn2673     O2684   1.991       .  S
Zn2674     O2679   2.049       .  S
Zn2674     O2682   2.036       .  S
Zn2675     O2683   2.003       .  S
Zn2675     O2686   1.970       .  S
Zn2675     O2687   2.004       .  S
Zn2675     O2676   1.901       .  S
O2677      C2689   1.278       .  A
O2678      C2690   1.275       .  A
O2679      C2691   1.282       .  A
O2680      C2689   1.273       .  A
O2681      C2691   1.286       .  A
O2682      C2690   1.277       .  A
O2683      C2692   1.272       .  A
O2685      C2692   1.279       .  A
O2686      C2693   1.269       .  A
O2687      C2694   1.274       .  A
O2688      C2694   1.281       .  A
C2689      C4617   1.480       .  S
C2690      C4665   1.482       .  S
C2691      C4737   1.492       .  S
C2692      C4649   1.491       .  S
C2693      C4689   1.452       .  S
C2694      C4633   1.473       .  S
Zn2695     O2700   2.069       .  S
Zn2695     O2704   2.058       .  S
Zn2695     O2711   2.038       .  S
Zn2695     O2699   1.970       .  S
Zn2696     O2701   1.991       .  S
Zn2696     O2703   2.000       .  S
Zn2696     O2707   1.977       .  S
Zn2696     O2699   1.954       .  S
Zn2697     O2702   1.979       .  S
Zn2697     O2705   1.954       .  S
Zn2697     O2708   1.963       .  S
Zn2697     O2699   1.935       .  S
Zn2698     O2706   2.094       .  S
Zn2698     O2709   2.096       .  S
Zn2698     O2710   2.113       .  S
Zn2698     O2699   2.001       .  S
O2700      C2712   1.277       .  A
O2701      C2713   1.267       .  A
O2702      C2714   1.269       .  A
O2703      C2712   1.270       .  A
O2704      C2714   1.275       .  A
O2705      C2713   1.264       .  A
O2706      C2715   1.279       .  A
O2707      C2716   1.269       .  A
O2708      C2715   1.264       .  A
O2709      C2716   1.283       .  A
O2710      C2717   1.289       .  A
O2711      C2717   1.283       .  A
C2712      C4593   1.481       .  S
C2713      C4577   1.456       .  S
C2714      C4609   1.476       .  S
C2715      C4521   1.478       .  S
C2716      C4545   1.479       .  S
C2717      C4553   1.503       .  S
Zn2718     O2723   2.050       .  S
Zn2718     O2727   2.074       .  S
Zn2718     O2734   2.050       .  S
Zn2718     O2722   1.941       .  S
Zn2719     O2724   2.025       .  S
Zn2719     O2726   2.006       .  S
Zn2719     O2730   1.990       .  S
Zn2719     O2722   1.916       .  S
Zn2720     O2725   2.045       .  S
Zn2720     O2728   2.050       .  S
Zn2720     O2731   2.029       .  S
Zn2720     O2722   1.927       .  S
Zn2721     O2729   2.017       .  S
Zn2721     O2732   1.995       .  S
Zn2721     O2733   2.020       .  S
Zn2721     O2722   1.956       .  S
O2723      C2735   1.277       .  A
O2724      C2736   1.275       .  A
O2725      C2737   1.283       .  A
O2726      C2735   1.273       .  A
O2727      C2737   1.285       .  A
O2728      C2736   1.279       .  A
O2729      C2738   1.274       .  A
O2730      C2739   1.271       .  A
O2731      C2738   1.273       .  A
O2732      C2739   1.269       .  A
O2733      C2740   1.275       .  A
O2734      C2740   1.275       .  A
C2735      C4721   1.471       .  S
C2736      C4489   1.477       .  S
C2737      C4561   1.497       .  S
C2738      C4473   1.476       .  S
C2739      C4505   1.460       .  S
C2740      C4705   1.480       .  S
Zn2741     O2746   2.104       .  S
Zn2741     O2750   2.086       .  S
Zn2741     O2757   2.102       .  S
Zn2742     O2749   1.983       .  S
Zn2742     O2753   1.978       .  S
Zn2743     O2748   2.018       .  S
Zn2743     O2751   2.086       .  S
Zn2743     O2754   2.079       .  S
Zn2743     O2745   1.966       .  S
Zn2744     O2755   1.953       .  S
Zn2744     O2756   1.952       .  S
O2746      C2758   1.285       .  A
O2747      C2759   1.269       .  A
O2748      C2760   1.281       .  A
O2749      C2758   1.271       .  A
O2751      C2759   1.281       .  A
O2752      C2761   1.268       .  A
O2753      C2762   1.269       .  A
O2754      C2761   1.279       .  A
O2755      C2762   1.266       .  A
O2756      C2763   1.264       .  A
O2757      C2763   1.281       .  A
C2758      C4529   1.493       .  S
C2759      C4537   1.497       .  S
C2760      C4409   1.490       .  S
C2761      C4441   1.491       .  S
C2762      C4457   1.456       .  S
C2763      C4425   1.490       .  S
Zn2764     O2769   2.075   1_556  S
Zn2764     O2773   2.057   1_556  S
Zn2764     O2780   2.002       .  S
Zn2764     O2768   1.950       .  S
Zn2765     O2770   2.005       .  S
Zn2765     O2772   1.985       .  S
Zn2765     O2776   1.983       .  S
Zn2765     O2768   1.912       .  S
Zn2766     O2771   1.965       .  S
Zn2766     O2774   1.981       .  S
Zn2766     O2777   1.966       .  S
Zn2766     O2768   1.917       .  S
Zn2767     O2775   2.097       .  S
Zn2767     O2778   2.088       .  S
Zn2767     O2779   2.102       .  S
Zn2767     O2768   1.961       .  S
O2769      C2781   1.279   1_554  A
O2770      C2782   1.273       .  A
O2771      C2783   1.265       .  A
O2772      C2781   1.269       .  A
O2773      C2783   1.277   1_554  A
O2774      C2782   1.270       .  A
O2775      C2784   1.282       .  A
O2776      C2785   1.273       .  A
O2777      C2784   1.267       .  A
O2778      C2785   1.285       .  A
O2779      C2786   1.290       .  A
O2780      C2786   1.279       .  A
C2782      C4393   1.468       .  S
C2784      C4369   1.491       .  S
C2785      C4849   1.484       .  S
C2786      C4417   1.493       .  S
Zn2787     O2792   2.101       .  S
Zn2787     O2796   2.057       .  S
Zn2787     O2803   2.060       .  S
Zn2787     O2791   1.957       .  S
Zn2788     O2793   1.954       .  S
Zn2788     O2795   1.962       .  S
Zn2788     O2799   2.013       .  S
Zn2788     O2791   1.943       .  S
Zn2789     O2794   2.099       .  S
Zn2789     O2797   2.101       .  S
Zn2789     O2800   2.095       .  S
Zn2789     O2791   1.978       .  S
Zn2790     O2798   1.973       .  S
Zn2790     O2801   1.972       .  S
Zn2790     O2802   1.969       .  S
Zn2790     O2791   1.910       .  S
O2792      C2804   1.283       .  A
O2793      C2805   1.263       .  A
O2794      C2806   1.290       .  A
O2795      C2804   1.266       .  A
O2796      C2806   1.284       .  A
O2797      C2805   1.280       .  A
O2798      C2807   1.267       .  A
O2799      C2808   1.270       .  A
O2800      C2807   1.281       .  A
O2801      C2808   1.271       .  A
O2802      C2809   1.269       .  A
O2803      C2809   1.280       .  A
C2804      C4937   1.493       .  S
C2805      C4961   1.489       .  S
C2806      C4297   1.507       .  S
C2807      C4329   1.493       .  S
C2808      C4321   1.465       .  S
C2809      C4345   1.482       .  S
Zn2810     O2815   2.046       .  S
Zn2810     O2819   2.050       .  S
Zn2810     O2826   2.045       .  S
Zn2810     O2814   1.960       .  S
Zn2811     O2816   1.980       .  S
Zn2811     O2818   1.955       .  S
Zn2811     O2822   1.951       .  S
Zn2811     O2814   1.920       .  S
Zn2812     O2817   1.993       .  S
Zn2812     O2820   2.020       .  S
Zn2812     O2823   1.980       .  S
Zn2812     O2814   1.951       .  S
Zn2813     O2821   2.101       .  S
Zn2813     O2824   2.103       .  S
Zn2813     O2825   2.100       .  S
Zn2813     O2814   1.970       .  S
O2815      C2827   1.277       .  A
O2816      C2828   1.268       .  A
O2817      C2829   1.271       .  A
O2818      C2827   1.267       .  A
O2819      C2829   1.277       .  A
O2820      C2828   1.270       .  A
O2821      C2830   1.286       .  A
O2822      C2831   1.265       .  A
O2823      C2830   1.272       .  A
O2824      C2831   1.281       .  A
O2825      C2832   1.289       .  A
O2826      C2832   1.281       .  A
C2827      C4281   1.473       .  S
C2828      C4249   1.471       .  S
C2829      C4641   1.487       .  S
C2830      C4625   1.497       .  S
C2831      C4273   1.485       .  S
C2832      C4305   1.506       .  S
Zn2833     O2838   2.023       .  S
Zn2833     O2842   2.047       .  S
Zn2833     O2849   2.034       .  S
Zn2833     O2837   1.941       .  S
Zn2834     O2839   1.966       .  S
Zn2834     O2841   1.995       .  S
Zn2834     O2845   2.004       .  S
Zn2834     O2837   1.906       .  S
Zn2835     O2840   2.034       .  S
Zn2835     O2843   2.008       .  S
Zn2835     O2846   2.011       .  S
Zn2835     O2837   1.968       .  S
Zn2836     O2844   2.062       .  S
Zn2836     O2847   2.087       .  S
Zn2836     O2848   2.084       .  S
Zn2836     O2837   1.950       .  S
O2838      C2850   1.271       .  A
O2839      C2851   1.270       .  A
O2840      C2852   1.276       .  A
O2841      C2850   1.270       .  A
O2842      C2852   1.276       .  A
O2843      C2851   1.268       .  A
O2844      C2853   1.279       .  A
O2845      C2854   1.272       .  A
O2846      C2853   1.276       .  A
O2847      C2854   1.281       .  A
O2848      C2855   1.287       .  A
O2849      C2855   1.282       .  A
C2850      C4169   1.464       .  S
C2851      C4193   1.460       .  S
C2854      C4217   1.485       .  S
C2855      C4233   1.484       .  S
Zn2856     O2861   2.046       .  S
Zn2856     O2865   2.123       .  S
Zn2856     O2872   2.075       .  S
Zn2856     O2860   1.960       .  S
Zn2857     O2862   2.070       .  S
Zn2857     O2864   2.070       .  S
Zn2857     O2868   2.100       .  S
Zn2857     O2860   1.934       .  S
Zn2858     O2863   1.948       .  S
Zn2858     O2866   1.958       .  S
Zn2858     O2869   1.979       .  S
Zn2858     O2860   1.874       .  S
Zn2859     O2867   1.997       .  S
Zn2859     O2870   1.971       .  S
Zn2859     O2871   1.953       .  S
Zn2859     O2860   1.906       .  S
O2861      C2873   1.283       .  A
O2862      C2874   1.282       .  A
O2863      C2875   1.265       .  A
O2864      C2873   1.288       .  A
O2865      C2875   1.284       .  A
O2866      C2874   1.271       .  A
O2867      C2876   1.269       .  A
O2868      C2877   1.283       .  A
O2869      C2876   1.271       .  A
O2870      C2877   1.268       .  A
O2871      C2878   1.266       .  A
O2872      C2878   1.282       .  A
C2873      C4241   1.492       .  S
C2874      C4145   1.474       .  S
C2875      C4129   1.499       .  S
C2876      C4313   1.459       .  S
C2877      C4969   1.494       .  S
C2878      C4993   1.477       .  S
Zn2879     O2884   1.977       .  S
Zn2879     O2888   1.965       .  S
Zn2879     O2895   1.956       .  S
Zn2879     O2883   1.943       .  S
Zn2880     O2885   1.962       .  S
Zn2880     O2887   1.957       .  S
Zn2880     O2891   1.938       .  S
Zn2880     O2883   1.922       .  S
Zn2881     O2886   2.056       .  S
Zn2881     O2889   2.055       .  S
Zn2881     O2892   2.019       .  S
Zn2881     O2883   1.964       .  S
Zn2882     O2890   2.109       .  S
Zn2882     O2893   2.131       .  S
Zn2882     O2894   2.104       .  S
Zn2882     O2883   1.985       .  S
O2884      C2896   1.267       .  A
O2885      C2897   1.266       .  A
O2886      C2898   1.276       .  A
O2887      C2896   1.265       .  A
O2888      C2898   1.266       .  A
O2889      C2897   1.277       .  A
O2890      C2899   1.292       .  A
O2891      C2900   1.264       .  A
O2892      C2899   1.280       .  A
O2893      C2900   1.285       .  A
O2894      C2901   1.284       .  A
O2895      C2901   1.266       .  A
C2896      C5009   1.459       .  S
C2897      C4137   1.481       .  S
C2898      C4353   1.483       .  S
C2899      C4105   1.499       .  S
Zn2902     O2907   2.101       .  S
Zn2902     O2911   2.088       .  S
Zn2902     O2918   2.102       .  S
Zn2902     O2906   1.961       .  S
Zn2903     O2908   1.956       .  S
Zn2903     O2910   1.982       .  S
Zn2903     O2914   1.951       .  S
Zn2903     O2906   1.908       .  S
Zn2904     O2909   2.043       .  S
Zn2904     O2912   2.070       .  S
Zn2904     O2915   2.114       .  S
Zn2904     O2906   1.967       .  S
Zn2905     O2913   1.971       .  S
Zn2905     O2916   1.986       .  S
Zn2905     O2917   1.927       .  S
Zn2905     O2906   1.928       .  S
O2907      C2919   1.283       .  A
O2908      C2920   1.267       .  A
O2909      C2921   1.285       .  A
O2910      C2919   1.268       .  A
O2911      C2921   1.291       .  A
O2912      C2920   1.279       .  A
O2913      C2922   1.265       .  A
O2914      C2923   1.269       .  A
O2915      C2922   1.280       .  A
O2916      C2923   1.268       .  A
O2917      C2924   1.262       .  A
O2918      C2924   1.282       .  A
C2919      C4089   1.493       .  S
C2920      C4073   1.483       .  S
C2921      C4113   1.498       .  S
C2922      C4033   1.494       .  S
C2923      C4057   1.454       .  S
C2924      C4049   1.470       .  S
Zn2925     O2930   1.987       .  S
Zn2925     O2934   1.989       .  S
Zn2925     O2941   1.956       .  S
Zn2925     O2929   1.909       .  S
Zn2926     O2931   2.039       .  S
Zn2926     O2933   2.070       .  S
Zn2926     O2937   2.035       .  S
Zn2926     O2929   1.940       .  S
Zn2927     O2932   1.985       .  S
Zn2927     O2935   1.993       .  S
Zn2927     O2938   1.995       .  S
Zn2927     O2929   1.943       .  S
Zn2928     O2936   2.093       .  S
Zn2928     O2939   2.079       .  S
Zn2928     O2940   2.086       .  S
Zn2928     O2929   1.953       .  S
O2930      C2942   1.272       .  A
O2931      C2943   1.276       .  A
O2932      C2944   1.269       .  A
O2933      C2942   1.280       .  A
O2934      C2944   1.271       .  A
O2935      C2943   1.272       .  A
O2936      C2945   1.282       .  A
O2937      C2946   1.282       .  A
O2938      C2945   1.272       .  A
O2939      C2946   1.288       .  A
O2940      C2947   1.282       .  A
O2941      C2947   1.267       .  A
C2942      C3937   1.487       .  S
C2943      C3977   1.482       .  S
C2944      C4009   1.463       .  S
C2945      C3993   1.499       .  S
C2946      C3969   1.496       .  S
C2947      C3945   1.481       .  S
Zn2948     O2953   2.061       .  S
Zn2948     O2957   2.059       .  S
Zn2948     O2964   2.068       .  S
Zn2948     O2952   1.957       .  S
Zn2949     O2954   2.020   1_556  S
Zn2949     O2956   1.999   1_556  S
Zn2949     O2960   2.019       .  S
Zn2949     O2952   1.957       .  S
Zn2950     O2955   2.051       .  S
Zn2950     O2958   2.076       .  S
Zn2950     O2961   2.037       .  S
Zn2950     O2952   1.949       .  S
Zn2951     O2959   1.984       .  S
Zn2951     O2962   1.970       .  S
Zn2951     O2963   2.008       .  S
Zn2951     O2952   1.922       .  S
O2953      C2965   1.280       .  A
O2954      C2966   1.275       .  A
O2955      C2967   1.282       .  A
O2956      C2965   1.274   1_554  A
O2957      C2967   1.282       .  A
O2958      C2966   1.280   1_556  A
O2959      C2968   1.272       .  A
O2960      C2969   1.269       .  A
O2961      C2968   1.275       .  A
O2962      C2969   1.267       .  A
O2963      C2970   1.270       .  A
O2964      C2970   1.277       .  A
C2967      C3961   1.480       .  S
C2968      C4817   1.475       .  S
C2969      C4401   1.456       .  S
C2970      C3905   1.485       .  S
Zn2971     O2976   2.022       .  S
Zn2971     O2980   2.021       .  S
Zn2971     O2987   2.019       .  S
Zn2971     O2975   1.962       .  S
Zn2972     O2977   2.020       .  S
Zn2972     O2979   2.062       .  S
Zn2972     O2983   2.056       .  S
Zn2972     O2975   1.942       .  S
Zn2973     O2978   1.975       .  S
Zn2973     O2981   1.979       .  S
Zn2973     O2984   1.987       .  S
Zn2973     O2975   1.916       .  S
Zn2974     O2982   2.073       .  S
Zn2974     O2985   2.109       .  S
Zn2974     O2986   2.044       .  S
Zn2974     O2975   1.948       .  S
O2976      C2988   1.277       .  A
O2977      C2989   1.271       .  A
O2978      C2990   1.266       .  A
O2979      C2988   1.279       .  A
O2980      C2990   1.268       .  A
O2981      C2989   1.269       .  A
O2982      C2991   1.281       .  A
O2983      C2992   1.282       .  A
O2984      C2991   1.272       .  A
O2985      C2992   1.289       .  A
O2986      C2993   1.277       .  A
O2987      C2993   1.276       .  A
C2988      C3857   1.486       .  S
C2989      C3865   1.463       .  S
C2990      C3889   1.456       .  S
C2991      C4041   1.492       .  S
C2992      C3833   1.497       .  S
C2993      C4025   1.486       .  S
Zn2994     O2999   1.976       .  S
Zn2994     O3003   1.963       .  S
Zn2994     O3010   1.952       .  S
Zn2994     O2998   1.904       .  S
Zn2995     O3000   2.007       .  S
Zn2995     O3002   2.031       .  S
Zn2995     O3006   2.002       .  S
Zn2995     O2998   1.941       .  S
Zn2996     O3001   2.100       .  S
Zn2996     O3004   2.101       .  S
Zn2996     O3007   2.124       .  S
Zn2996     O2998   1.953       .  S
Zn2997     O3005   2.048       .  S
Zn2997     O3008   2.069       .  S
Zn2997     O3009   2.072       .  S
Zn2997     O2998   1.951       .  S
O2999      C3011   1.268       .  A
O3000      C3012   1.275       .  A
O3001      C3013   1.284       .  A
O3002      C3011   1.273       .  A
O3003      C3013   1.268       .  A
O3004      C3012   1.287       .  A
O3005      C3014   1.282       .  A
O3006      C3015   1.274       .  A
O3007      C3014   1.293       .  A
O3008      C3015   1.281       .  A
O3009      C3016   1.279       .  A
O3010      C3016   1.265       .  A
C3011      C4801   1.475       .  S
C3012      C3897   1.495       .  S
C3013      C4361   1.489       .  S
C3014      C3841   1.508       .  S
C3015      C3921   1.491       .  S
C3016      C4385   1.482       .  S
Zn3017     O3022   2.074       .  S
Zn3017     O3026   2.065       .  S
Zn3017     O3033   2.033       .  S
Zn3017     O3021   1.955       .  S
Zn3018     O3023   1.992       .  S
Zn3018     O3025   1.961       .  S
Zn3018     O3029   1.966       .  S
Zn3018     O3021   1.910       .  S
Zn3019     O3024   1.972       .  S
Zn3019     O3027   1.998       .  S
Zn3019     O3030   1.977       .  S
Zn3019     O3021   1.930       .  S
Zn3020     O3028   2.077       .  S
Zn3020     O3031   2.087       .  S
Zn3020     O3032   2.095       .  S
Zn3020     O3021   1.953       .  S
O3022      C3034   1.280       .  A
O3023      C3035   1.271       .  A
O3024      C3036   1.269       .  A
O3025      C3034   1.267       .  A
O3026      C3036   1.279       .  A
O3027      C3035   1.270       .  A
O3028      C3037   1.280       .  A
O3029      C3038   1.270       .  A
O3030      C3037   1.268       .  A
O3031      C3038   1.284       .  A
O3032      C3039   1.289       .  A
O3033      C3039   1.280       .  A
C3034      C3953   1.486       .  S
C3035      C3785   1.469       .  S
C3036      C3817   1.483       .  S
C3037      C3801   1.483       .  S
C3038      C3929   1.475       .  S
C3039      C3777   1.487       .  S
Zn3040     O3045   2.022       .  S
Zn3040     O3049   2.062       .  S
Zn3040     O3056   2.044       .  S
Zn3040     O3044   1.941       .  S
Zn3041     O3046   1.956       .  S
Zn3041     O3048   1.998       .  S
Zn3041     O3052   1.999       .  S
Zn3041     O3044   1.910       .  S
Zn3042     O3047   2.012       .  S
Zn3042     O3050   2.021       .  S
Zn3042     O3053   2.006       .  S
Zn3042     O3044   1.968       .  S
Zn3043     O3051   2.051       .  S
Zn3043     O3054   2.072       .  S
Zn3043     O3055   2.079       .  S
Zn3043     O3044   1.956       .  S
O3045      C3057   1.271       .  A
O3046      C3058   1.268       .  A
O3047      C3059   1.275       .  A
O3048      C3057   1.270       .  A
O3049      C3059   1.277       .  A
O3050      C3058   1.269       .  A
O3051      C3060   1.277       .  A
O3052      C3061   1.273       .  A
O3053      C3060   1.274       .  A
O3054      C3061   1.281       .  A
O3055      C3062   1.286       .  A
O3056      C3062   1.283       .  A
C3057      C4785   1.465       .  S
C3058      C4513   1.462       .  S
C3059      C4769   1.489       .  S
C3060      C3761   1.478       .  S
C3061      C3737   1.491       .  S
C3062      C3769   1.491       .  S
Zn3063     O3068   2.073       .  S
Zn3063     O3072   2.003       .  S
Zn3063     O3079   2.055       .  S
Zn3063     O3067   1.948       .  S
Zn3064     O3069   1.981       .  S
Zn3064     O3071   1.970       .  S
Zn3064     O3075   1.989       .  S
Zn3064     O3067   1.910       .  S
Zn3065     O3070   2.117       .  S
Zn3065     O3073   2.091       .  S
Zn3065     O3076   2.081       .  S
Zn3065     O3067   1.962       .  S
Zn3066     O3074   1.978       .  S
Zn3066     O3077   1.995       .  S
Zn3066     O3078   1.981       .  S
Zn3066     O3067   1.936       .  S
O3068      C3080   1.279       .  A
O3069      C3081   1.271       .  A
O3070      C3082   1.291       .  A
O3071      C3080   1.268       .  A
O3072      C3082   1.277       .  A
O3073      C3081   1.284       .  A
O3074      C3083   1.269       .  A
O3075      C3084   1.271       .  A
O3076      C3083   1.281       .  A
O3077      C3084   1.269       .  A
O3078      C3085   1.270       .  A
O3079      C3085   1.279       .  A
C3080      C4201   1.486       .  S
C3081      C4225   1.483       .  S
C3082      C3721   1.501       .  S
C3083      C3705   1.487       .  S
C3084      C3673   1.463       .  S
C3085      C3697   1.482       .  S
Zn3086     O3091   2.090       .  S
Zn3086     O3095   2.029       .  S
Zn3086     O3102   2.088       .  S
Zn3086     O3090   1.972       .  S
Zn3087     O3092   1.975       .  S
Zn3087     O3094   1.983       .  S
Zn3087     O3098   2.015       .  S
Zn3087     O3090   1.946       .  S
Zn3088     O3093   2.109       .  S
Zn3088     O3096   2.095       .  S
Zn3088     O3099   2.114       .  S
Zn3088     O3090   1.966       .  S
Zn3089     O3097   1.971       .  S
Zn3089     O3100   1.950       .  S
Zn3089     O3101   1.942       .  S
Zn3089     O3090   1.906       .  S
O3091      C3103   1.282       .  A
O3092      C3104   1.269       .  A
O3093      C3105   1.293       .  A
O3094      C3103   1.270       .  A
O3095      C3105   1.281       .  A
O3096      C3104   1.284       .  A
O3097      C3106   1.266       .  A
O3098      C3107   1.271       .  A
O3099      C3106   1.283       .  A
O3100      C3107   1.267       .  A
O3101      C3108   1.265       .  A
O3102      C3108   1.279       .  A
C3103      C3753   1.494       .  S
C3105      C3729   1.500       .  S
C3107      C4745   1.468       .  S
C3108      C4481   1.485       .  S
Zn3109     O3114   2.018       .  S
Zn3109     O3118   1.996       .  S
Zn3109     O3125   1.991       .  S
Zn3109     O3113   1.955       .  S
Zn3110     O3115   2.038       .  S
Zn3110     O3117   2.035       .  S
Zn3110     O3121   2.058       .  S
Zn3110     O3113   1.939       .  S
Zn3111     O3116   2.062       .  S
Zn3111     O3119   2.061       .  S
Zn3111     O3122   2.067       .  S
Zn3111     O3113   1.952       .  S
Zn3112     O3120   2.006       .  S
Zn3112     O3123   2.007       .  S
Zn3112     O3124   1.963       .  S
Zn3112     O3113   1.909       .  S
O3114      C3126   1.274       .  A
O3115      C3127   1.281       .  A
O3116      C3128   1.276       .  A
O3117      C3126   1.273       .  A
O3118      C3128   1.271       .  A
O3119      C3127   1.284       .  A
O3120      C3129   1.273       .  A
O3121      C3130   1.278       .  A
O3122      C3129   1.279       .  A
O3123      C3130   1.272       .  A
O3124      C3131   1.269       .  A
O3125      C3131   1.268       .  A
C3126      C4449   1.479       .  S
C3127      C3665   1.478       .  S
C3128      C3641   1.476       .  S
C3129      C3625   1.479       .  S
C3130      C4433   1.475       .  S
C3131      C4569   1.453       .  S
Zn3132     O3137   1.925       .  S
Zn3132     O3141   1.942       .  S
Zn3132     O3148   1.968       .  S
Zn3132     O3136   1.906       .  S
Zn3133     O3138   2.102       .  S
Zn3133     O3140   2.124       .  S
Zn3133     O3144   2.085       .  S
Zn3133     O3136   1.977       .  S
Zn3134     O3139   1.997       .  S
Zn3134     O3142   1.981       .  S
Zn3134     O3145   1.978       .  S
Zn3134     O3136   1.947       .  S
Zn3135     O3143   2.030       .  S
Zn3135     O3146   2.014       .  S
Zn3135     O3147   2.075       .  S
Zn3135     O3136   1.960       .  S
O3137      C3149   1.263       .  A
O3138      C3150   1.283       .  A
O3139      C3151   1.269       .  A
O3140      C3149   1.285       .  A
O3141      C3151   1.265       .  A
O3142      C3150   1.270       .  A
O3143      C3152   1.274       .  A
O3144      C3153   1.288       .  A
O3145      C3152   1.270       .  A
O3146      C3153   1.279       .  A
O3147      C3154   1.279       .  A
O3148      C3154   1.266       .  A
C3149      C3593   1.486       .  S
C3150      C3849   1.498       .  S
C3151      C4065   1.460       .  S
C3152      C3873   1.473       .  S
C3153      C3657   1.492       .  S
C3154      C3609   1.486       .  S
Zn3155     O3160   2.010       .  S
Zn3155     O3171   2.004       .  S
Zn3155     O3159   1.956       .  S
Zn3156     O3163   1.955       .  S
Zn3156     O3167   1.964       .  S
Zn3156     O3159   1.912       .  S
Zn3157     O3162   2.109       .  S
Zn3157     O3165   2.097       .  S
Zn3157     O3168   2.105       .  S
Zn3158     O3166   2.004       .  S
Zn3158     O3169   2.029       .  S
Zn3158     O3170   2.045       .  S
Zn3158     O3159   1.938       .  S
O3160      C3172   1.270       .  A
O3161      C3173   1.266       .  A
O3162      C3174   1.284       .  A
O3163      C3172   1.268       .  A
O3164      C3174   1.271       .  A
O3165      C3173   1.281       .  A
O3166      C3175   1.278       .  A
O3167      C3176   1.268       .  A
O3169      C3176   1.274       .  A
O3170      C3177   1.277       .  A
O3171      C3177   1.271       .  A
C3172      C4681   1.458       .  S
C3173      C4265   1.486       .  S
C3174      C3561   1.499       .  S
C3175      C3585   1.494       .  S
C3176      C4289   1.464       .  S
C3177      C3545   1.486       .  S
Zn3178     O3183   2.083       .  S
Zn3178     O3187   2.092       .  S
Zn3178     O3194   2.094       .  S
Zn3178     O3182   1.949       .  S
Zn3179     O3184   2.104       .  S
Zn3179     O3186   2.030       .  S
Zn3179     O3190   2.066       .  S
Zn3179     O3182   1.956       .  S
Zn3180     O3185   1.965       .  S
Zn3180     O3188   1.961       .  S
Zn3180     O3191   1.988       .  S
Zn3180     O3182   1.895       .  S
Zn3181     O3189   2.004       .  S
Zn3181     O3192   1.975       .  S
Zn3181     O3193   1.982       .  S
Zn3181     O3182   1.927       .  S
O3183      C3195   1.289       .  A
O3184      C3196   1.282       .  A
O3185      C3197   1.271       .  A
O3186      C3195   1.281       .  A
O3187      C3197   1.284       .  A
O3188      C3196   1.266       .  A
O3189      C3198   1.270       .  A
O3190      C3199   1.280       .  A
O3191      C3198   1.272       .  A
O3192      C3199   1.269       .  A
O3193      C3200   1.270       .  A
O3194      C3200   1.283       .  A
C3195      C3577   1.496       .  S
C3197      C3617   1.480       .  S
C3198      C3881   1.467       .  S
C3199      C4081   1.482       .  S
C3200      C4097   1.494       .  S
Zn3201     O3206   1.976       .  S
Zn3201     O3210   1.984       .  S
Zn3201     O3217   1.993       .  S
Zn3201     O3205   1.884       .  S
Zn3202     O3207   2.033       .  S
Zn3202     O3209   2.097       .  S
Zn3202     O3213   2.041       .  S
Zn3202     O3205   1.938       .  S
Zn3203     O3208   2.008       .  S
Zn3203     O3211   2.007       .  S
Zn3203     O3214   2.008       .  S
Zn3203     O3205   1.941       .  S
Zn3204     O3212   2.066       .  S
Zn3204     O3215   2.074       .  S
Zn3204     O3216   2.064       .  S
Zn3204     O3205   1.936       .  S
O3206      C3218   1.270       .  A
O3207      C3219   1.276       .  A
O3208      C3220   1.270       .  A
O3209      C3218   1.281       .  A
O3210      C3220   1.270       .  A
O3211      C3219   1.274       .  A
O3212      C3221   1.278       .  A
O3213      C3222   1.284       .  A
O3214      C3221   1.273       .  A
O3215      C3222   1.286       .  A
O3216      C3223   1.281       .  A
O3217      C3223   1.274       .  A
C3218      C4657   1.488       .  S
C3219      C4673   1.475       .  S
C3220      C4257   1.458       .  S
C3221      C3569   1.482       .  S
C3222      C3529   1.495       .  S
C3223      C3553   1.478       .  S
Zn3224     O3229   1.979       .  S
Zn3224     O3233   1.992       .  S
Zn3224     O3240   2.015       .  S
Zn3224     O3228   1.903       .  S
Zn3225     O3230   2.009       .  S
Zn3225     O3232   1.992       .  S
Zn3225     O3236   2.009       .  S
Zn3225     O3228   1.950       .  S
Zn3226     O3231   2.086       .  S
Zn3226     O3234   2.055       .  S
Zn3226     O3237   2.080       .  S
Zn3226     O3228   1.935       .  S
Zn3227     O3235   2.016       .  S
Zn3227     O3238   2.033       .  S
Zn3227     O3239   2.049       .  S
Zn3227     O3228   1.923       .  S
O3229      C3241   1.272       .  A
O3230      C3242   1.272       .  A
O3231      C3243   1.282       .  A
O3232      C3241   1.269       .  A
O3233      C3243   1.270       .  A
O3234      C3242   1.279       .  A
O3235      C3244   1.281       .  A
O3236      C3245   1.273       .  A
O3237      C3244   1.286       .  A
O3238      C3245   1.274       .  A
O3239      C3246   1.277       .  A
O3240      C3246   1.274       .  A
C3241      C4017   1.455       .  S
C3242      C3521   1.486       .  S
C3243      C3497   1.478       .  S
C3244      C3537   1.495       .  S
C3245      C3825   1.478       .  S
C3246      C3809   1.475       .  S
Zn3247     O3252   2.073       .  S
Zn3247     O3256   2.065       .  S
Zn3247     O3263   2.111       .  S
Zn3247     O3251   1.966       .  S
Zn3248     O3253   1.969       .  S
Zn3248     O3255   1.996       .  S
Zn3248     O3259   2.013       .  S
Zn3248     O3251   1.932       .  S
Zn3249     O3254   2.011       .  S
Zn3249     O3257   2.017       .  S
Zn3249     O3260   2.032       .  S
Zn3249     O3251   1.974       .  S
Zn3250     O3258   2.057       .  S
Zn3250     O3261   2.009       .  S
Zn3250     O3262   2.034       .  S
Zn3250     O3251   1.929       .  S
O3252      C3264   1.278       .  A
O3253      C3265   1.267       .  A
O3254      C3266   1.275       .  A
O3255      C3264   1.270       .  A
O3256      C3266   1.281       .  A
O3257      C3265   1.269       .  A
O3258      C3267   1.276       .  A
O3259      C3268   1.273       .  A
O3260      C3267   1.275       .  A
O3261      C3268   1.273       .  A
O3262      C3269   1.281       .  A
O3263      C3269   1.288       .  A
C3265      C3793   1.456       .  S
C3266      C3513   1.485       .  S
C3267      C4001   1.487       .  S
C3268      C3985   1.468       .  S
C3269      C3481   1.506       .  S
Zn3270     O3279   2.087       .  S
Zn3270     O3286   2.065       .  S
Zn3270     O3274   1.959       .  S
Zn3271     O3276   2.012       .  S
Zn3271     O3278   2.005       .  S
Zn3271     O3282   2.021       .  S
Zn3272     O3277   2.068       .  S
Zn3272     O3283   2.057       .  S
Zn3272     O3274   1.962       .  S
Zn3273     O3281   2.007       .  S
Zn3273     O3284   1.968       .  S
Zn3273     O3285   1.998       .  S
Zn3273     O3274   1.925       .  S
O3275      C3287   1.278       .  A
O3276      C3288   1.273       .  A
O3277      C3289   1.285       .  A
O3278      C3287   1.275       .  A
O3279      C3289   1.287       .  A
O3280      C3288   1.278       .  A
O3281      C3290   1.274       .  A
O3283      C3290   1.278       .  A
O3284      C3291   1.269       .  A
O3285      C3292   1.270       .  A
O3286      C3292   1.277       .  A
C3287      C3449   1.481       .  S
C3288      C4897   1.488       .  S
C3289      C3489   1.506       .  S
C3290      C4913   1.486       .  S
C3291      C5073   1.470       .  S
C3292      C3473   1.476       .  S
Zn3293     O3298   2.010       .  S
Zn3293     O3302   1.967       .  S
Zn3293     O3309   1.969       .  S
Zn3293     O3297   1.953       .  S
Zn3294     O3299   1.976       .  S
Zn3294     O3301   1.960       .  S
Zn3294     O3305   1.962       .  S
Zn3294     O3297   1.903       .  S
Zn3295     O3300   2.064       .  S
Zn3295     O3303   2.058       .  S
Zn3295     O3306   2.002       .  S
Zn3295     O3297   1.957       .  S
Zn3296     O3304   2.097       .  S
Zn3296     O3307   2.124       .  S
Zn3296     O3308   2.102       .  S
Zn3296     O3297   1.982       .  S
O3298      C3310   1.269       .  A
O3299      C3311   1.269       .  A
O3300      C3312   1.278       .  A
O3301      C3310   1.269       .  A
O3302      C3312   1.267       .  A
O3303      C3311   1.276       .  A
O3304      C3313   1.290       .  A
O3305      C3314   1.267       .  A
O3306      C3313   1.278       .  A
O3307      C3314   1.282       .  A
O3308      C3315   1.284       .  A
O3309      C3315   1.268       .  A
C3310      C3681   1.461       .  S
C3311      C4177   1.485       .  S
C3312      C3425   1.485       .  S
C3313      C3441   1.493       .  S
C3314      C4161   1.495       .  S
C3315      C3409   1.494       .  S
Zn3316     O3321   2.088       .  S
Zn3316     O3325   2.097       .  S
Zn3316     O3332   2.090       .  S
Zn3316     O3320   1.974       .  S
Zn3317     O3322   2.064       .  S
Zn3317     O3324   2.015       .  S
Zn3317     O3328   2.075       .  S
Zn3317     O3320   1.965       .  S
Zn3318     O3323   1.981       .  S
Zn3318     O3326   1.970       .  S
Zn3318     O3329   1.978       .  S
Zn3318     O3320   1.934       .  S
Zn3319     O3327   1.990       .  S
Zn3319     O3330   1.989       .  S
Zn3319     O3331   1.977       .  S
Zn3319     O3320   1.927       .  S
O3321      C3333   1.289       .  A
O3322      C3334   1.278       .  A
O3323      C3335   1.268       .  A
O3324      C3333   1.279       .  A
O3325      C3335   1.282       .  A
O3326      C3334   1.268       .  A
O3327      C3336   1.271       .  A
O3328      C3337   1.279       .  A
O3329      C3336   1.268       .  A
O3330      C3337   1.270       .  A
O3331      C3338   1.271       .  A
O3332      C3338   1.283       .  A
C3333      C3433   1.494       .  S
C3334      C5105   1.484       .  S
C3335      C5081   1.495       .  S
C3336      C4929   1.468       .  S
C3337      C3457   1.491       .  S
C3338      C3465   1.490       .  S
Zn3339     O3344   1.981       .  S
Zn3339     O3348   1.969       .  S
Zn3340     O3345   1.960       .  S
Zn3340     O3347   1.946       .  S
Zn3341     O3346   2.103       .  S
Zn3341     O3349   2.106       .  S
Zn3341     O3352   2.092       .  S
Zn3342     O3350   2.008       .  S
Zn3342     O3353   2.071       .  S
Zn3342     O3354   2.067       .  S
Zn3342     O3343   1.968       .  S
O3344      C3356   1.267       .  A
O3345      C3357   1.266       .  A
O3346      C3358   1.284       .  A
O3347      C3356   1.267       .  A
O3348      C3358   1.269       .  A
O3349      C3357   1.282       .  A
O3350      C3359   1.280       .  A
O3351      C3360   1.266       .  A
O3353      C3360   1.276       .  A
O3354      C3361   1.279       .  A
O3355      C3361   1.269       .  A
C3356      C4465   1.460       .  S
C3357      C4585   1.493       .  S
C3358      C3649   1.493       .  S
C3359      C3385   1.487       .  S
C3360      C4601   1.490       .  S
C3361      C3633   1.490       .  S
Zn3362     O3367   1.996       .  S
Zn3362     O3371   1.967       .  S
Zn3362     O3378   2.024       .  S
Zn3362     O3366   1.913       .  S
Zn3363     O3368   2.030       .  S
Zn3363     O3370   2.037       .  S
Zn3363     O3374   2.035       .  S
Zn3363     O3366   1.941       .  S
Zn3364     O3369   2.019       .  S
Zn3364     O3372   2.023       .  S
Zn3364     O3375   2.002       .  S
Zn3364     O3366   1.956       .  S
Zn3365     O3373   2.035       .  S
Zn3365     O3376   2.027       .  S
Zn3365     O3377   2.050       .  S
Zn3365     O3366   1.943       .  S
O3367      C3379   1.272       .  A
O3368      C3380   1.273       .  A
O3369      C3381   1.271       .  A
O3370      C3379   1.275       .  A
O3371      C3381   1.269       .  A
O3372      C3380   1.274       .  A
O3373      C3382   1.275       .  A
O3374      C3383   1.279       .  A
O3375      C3382   1.274       .  A
O3376      C3383   1.278       .  A
O3377      C3384   1.277       .  A
O3378      C3384   1.274       .  A
C3379      C3417   1.466       .  S
C3381      C4185   1.463       .  S
C3383      C3393   1.470       .  S
C3384      C3713   1.479       .  S
C3385      C3386   1.406       .  A
C3385      C3390   1.410       .  A
C3386      C3387   1.402       .  A
C3386      H3395   1.083       .  S
C3387      C3388   1.405       .  A
C3387      H3396   1.083       .  S
C3388      C3394   1.407       .  A
C3388      C3389   1.413       .  A
C3389      C3391   1.404       .  A
C3389      C3390   1.402       .  A
C3391      C3392   1.397       .  A
C3392      C3393   1.401       .  A
C3392      H3399   1.084       .  S
C3393      C3394   1.406       .  A
C3394      H3400   1.084       .  S
C3401      C3402   1.403       .  A
C3401      C3406   1.411       .  A
C3402      C3403   1.400       .  A
C3402      H3411   1.084       .  S
C3403      C3404   1.405       .  A
C3403      H3412   1.083       .  S
C3404      C3410   1.405       .  A
C3404      C3405   1.411       .  A
C3405      C3407   1.408       .  A
C3405      C3406   1.411       .  A
C3406      H3413   1.084   1_556  S
C3407      C3408   1.405       .  A
C3407      H3414   1.083   1_556  S
C3408      C3409   1.405       .  A
C3408      H3415   1.083       .  S
C3409      C3410   1.415       .  A
C3410      H3416   1.083       .  S
C3417      C3418   1.400       .  A
C3417      C3422   1.404       .  A
C3418      C3419   1.401       .  A
C3418      H3427   1.083       .  S
C3419      C3420   1.407       .  A
C3419      H3428   1.084       .  S
C3420      C3426   1.403       .  A
C3420      C3421   1.412       .  A
C3421      C3423   1.404       .  A
C3421      C3422   1.401       .  A
C3422      H3429   1.085       .  S
C3423      C3424   1.399       .  A
C3423      H3430   1.084       .  S
C3424      C3425   1.404       .  A
C3424      H3431   1.083       .  S
C3425      C3426   1.413       .  A
C3426      H3432   1.084       .  S
C3433      C3434   1.405       .  A
C3433      C3438   1.415       .  A
C3434      C3435   1.401       .  A
C3434      H3443   1.083       .  S
C3435      C3436   1.405       .  A
C3435      H3444   1.083       .  S
C3436      C3442   1.406       .  A
C3436      C3437   1.410       .  A
C3437      C3439   1.407       .  A
C3437      C3438   1.408       .  A
C3438      H3445   1.084       .  S
C3439      C3440   1.403       .  A
C3439      H3446   1.083       .  S
C3440      C3441   1.405       .  A
C3440      H3447   1.083       .  S
C3441      C3442   1.414       .  A
C3442      H3448   1.084       .  S
C3449      C3450   1.404       .  A
C3449      C3454   1.411       .  A
C3450      C3451   1.399       .  A
C3450      H3459   1.084       .  S
C3451      C3452   1.404       .  A
C3451      H3460   1.083       .  S
C3452      C3458   1.405       .  A
C3452      C3453   1.412       .  A
C3453      C3455   1.407       .  A
C3453      C3454   1.410       .  A
C3454      H3461   1.083       .  S
C3455      C3456   1.404       .  A
C3455      H3462   1.083       .  S
C3456      C3457   1.406       .  A
C3456      H3463   1.083       .  S
C3457      C3458   1.411       .  A
C3458      H3464   1.083       .  S
C3465      C3466   1.405       .  A
C3465      C3470   1.412       .  A
C3466      C3467   1.405       .  A
C3466      H3475   1.083       .  S
C3467      C3468   1.407       .  A
C3467      H3476   1.083       .  S
C3468      C3474   1.410       .  A
C3468      C3469   1.412       .  A
C3469      C3471   1.405       .  A
C3469      C3470   1.405       .  A
C3470      H3477   1.084       .  S
C3471      C3472   1.399       .  A
C3471      H3478   1.083       .  S
C3472      C3473   1.400       .  A
C3472      H3479   1.084       .  S
C3473      C3474   1.410       .  A
C3474      H3480   1.084       .  S
C3481      C3482   1.410       .  A
C3481      C3486   1.416       .  A
C3482      C3483   1.399       .  A
C3482      H3491   1.083       .  S
C3483      C3484   1.401       .  A
C3483      H3492   1.084       .  S
C3484      C3490   1.414       .  A
C3484      C3485   1.414       .  A
C3485      C3487   1.407       .  A
C3485      C3486   1.423       .  A
C3486      H3493   1.083       .  S
C3487      C3488   1.409       .  A
C3487      H3494   1.083       .  S
C3488      C3489   1.410       .  A
C3488      H3495   1.083       .  S
C3489      C3490   1.412       .  A
C3490      H3496   1.084       .  S
C3497      C3498   1.403       .  A
C3497      C3502   1.409       .  A
C3498      C3499   1.402       .  A
C3498      H3507   1.083       .  S
C3499      C3500   1.406       .  A
C3500      C3501   1.413       .  A
C3501      C3503   1.406       .  A
C3501      C3502   1.409       .  A
C3502      H3509   1.085       .  S
C3503      C3504   1.403       .  A
C3503      H3510   1.083       .  S
C3504      C3505   1.402   1_556  A
C3504      H3511   1.083       .  S
C3506      H3512   1.085       .  S
C3513      C3514   1.408       .  A
C3513      C3518   1.407       .  A
C3514      C3515   1.401       .  A
C3514      H3523   1.084       .  S
C3515      C3516   1.403       .  A
C3515      H3524   1.083       .  S
C3516      C3522   1.411       .  A
C3516      C3517   1.414       .  A
C3517      C3519   1.402       .  A
C3517      C3518   1.411       .  A
C3518      H3525   1.084       .  S
C3519      C3520   1.400       .  A
C3519      H3526   1.083       .  S
C3520      C3521   1.406       .  A
C3520      H3527   1.083       .  S
C3521      C3522   1.409       .  A
C3522      H3528   1.084       .  S
C3529      C3530   1.408       .  A
C3529      C3534   1.408       .  A
C3530      C3531   1.408       .  A
C3530      H3539   1.083       .  S
C3531      C3532   1.407       .  A
C3531      H3540   1.083       .  S
C3532      C3538   1.417       .  A
C3532      C3533   1.413       .  A
C3533      C3535   1.398       .  A
C3533      C3534   1.405       .  A
C3534      H3541   1.084       .  S
C3535      C3536   1.393       .  A
C3535      H3542   1.084       .  S
C3536      C3537   1.409       .  A
C3536      H3543   1.083       .  S
C3537      C3538   1.414       .  A
C3538      H3544   1.083       .  S
C3545      C3546   1.405       .  A
C3545      C3550   1.413       .  A
C3546      C3547   1.396       .  A
C3546      H3555   1.083       .  S
C3547      C3548   1.401       .  A
C3547      H3556   1.083       .  S
C3548      C3554   1.400       .  A
C3548      C3549   1.412       .  A
C3549      C3551   1.408       .  A
C3549      C3550   1.409       .  A
C3550      H3557   1.083       .  S
C3551      C3552   1.405       .  A
C3551      H3558   1.083       .  S
C3552      C3553   1.404       .  A
C3552      H3559   1.083       .  S
C3553      C3554   1.405       .  A
C3554      H3560   1.084       .  S
C3561      C3562   1.407       .  A
C3561      C3566   1.414       .  A
C3562      C3563   1.409       .  A
C3562      H3571   1.083       .  S
C3563      C3564   1.409       .  A
C3563      H3572   1.083       .  S
C3564      C3570   1.415       .  A
C3564      C3565   1.411       .  A
C3565      C3567   1.405       .  A
C3565      C3566   1.407       .  A
C3566      H3573   1.083       .  S
C3567      C3568   1.399       .  A
C3567      H3574   1.083       .  S
C3568      C3569   1.402       .  A
C3568      H3575   1.084       .  S
C3569      C3570   1.412       .  A
C3570      H3576   1.084       .  S
C3577      C3578   1.406       .  A
C3577      C3582   1.415       .  A
C3578      C3579   1.401       .  A
C3578      H3587   1.083       .  S
C3579      C3580   1.405       .  A
C3579      H3588   1.084       .  S
C3580      C3586   1.407       .  A
C3580      C3581   1.410       .  A
C3581      C3583   1.406       .  A
C3581      C3582   1.410       .  A
C3582      H3589   1.084       .  S
C3583      C3584   1.403       .  A
C3584      C3585   1.406       .  A
C3585      C3586   1.414       .  A
C3586      H3592   1.084       .  S
C3593      C3594   1.412       .  A
C3593      C3598   1.404       .  A
C3594      C3595   1.397       .  A
C3594      H3603   1.084       .  S
C3595      C3596   1.398       .  A
C3595      H3604   1.084       .  S
C3596      C3602   1.415       .  A
C3596      C3597   1.418       .  A
C3597      C3599   1.396   1_556  A
C3597      C3598   1.414       .  A
C3598      H3605   1.084       .  S
C3599      H3606   1.084       .  S
C3600      H3607   1.083       .  S
C3601      C3602   1.405   1_554  A
C3602      H3608   1.084       .  S
C3609      C3610   1.403       .  A
C3609      C3614   1.414       .  A
C3610      C3611   1.400       .  A
C3610      H3619   1.083       .  S
C3611      C3612   1.405       .  A
C3611      H3620   1.083       .  S
C3612      C3618   1.402       .  A
C3612      C3613   1.410       .  A
C3613      C3615   1.409       .  A
C3613      C3614   1.406       .  A
C3614      H3621   1.084       .  S
C3615      C3616   1.405       .  A
C3615      H3622   1.083       .  S
C3616      C3617   1.402       .  A
C3616      H3623   1.083       .  S
C3617      C3618   1.410       .  A
C3618      H3624   1.084       .  S
C3625      C3626   1.402       .  A
C3625      C3630   1.407       .  A
C3626      C3627   1.405       .  A
C3626      H3635   1.083       .  S
C3627      C3628   1.408       .  A
C3627      H3636   1.083       .  S
C3628      C3634   1.410       .  A
C3628      C3629   1.412       .  A
C3629      C3631   1.403       .  A
C3629      C3630   1.405       .  A
C3630      H3637   1.084       .  S
C3631      C3632   1.399       .  A
C3631      H3638   1.083       .  S
C3632      C3633   1.405       .  A
C3632      H3639   1.083       .  S
C3633      C3634   1.415       .  A
C3634      H3640   1.084       .  S
C3641      C3642   1.401       .  A
C3641      C3646   1.411       .  A
C3642      C3643   1.398       .  A
C3642      H3651   1.084       .  S
C3643      C3644   1.405       .  A
C3643      H3652   1.083       .  S
C3644      C3650   1.405       .  A
C3644      C3645   1.412       .  A
C3645      C3647   1.408       .  A
C3645      C3646   1.412       .  A
C3646      H3653   1.084       .  S
C3647      C3648   1.406       .  A
C3647      H3654   1.083       .  S
C3648      C3649   1.406       .  A
C3648      H3655   1.083       .  S
C3649      C3650   1.413       .  A
C3650      H3656   1.084       .  S
C3657      C3658   1.406       .  A
C3657      C3662   1.413       .  A
C3658      C3659   1.402       .  A
C3658      H3667   1.083       .  S
C3659      C3660   1.405       .  A
C3659      H3668   1.083       .  S
C3660      C3666   1.409       .  A
C3660      C3661   1.413       .  A
C3661      C3663   1.406       .  A
C3661      C3662   1.408       .  A
C3662      H3669   1.084       .  S
C3663      C3664   1.401       .  A
C3663      H3670   1.083       .  S
C3664      C3665   1.402       .  A
C3664      H3671   1.083       .  S
C3665      C3666   1.408       .  A
C3666      H3672   1.084       .  S
C3673      C3674   1.402       .  A
C3673      C3678   1.406       .  A
C3674      C3675   1.388       .  A
C3674      H3683   1.084       .  S
C3675      C3676   1.398       .  A
C3675      H3684   1.084       .  S
C3676      C3682   1.389       .  A
C3676      C3677   1.414       .  A
C3677      C3679   1.406       .  A
C3677      C3678   1.401       .  A
C3678      H3685   1.084       .  S
C3679      C3680   1.400       .  A
C3679      H3686   1.084       .  S
C3680      C3681   1.403       .  A
C3680      H3687   1.083       .  S
C3681      C3682   1.399       .  A
C3682      H3688   1.086       .  S
C3689      C3690   1.401       .  A
C3689      C3694   1.404   1_556  A
C3690      C3691   1.396       .  A
C3690      H3699   1.083       .  S
C3691      C3692   1.404       .  A
C3691      H3700   1.083       .  S
C3692      C3698   1.400       .  A
C3692      C3693   1.412       .  A
C3693      C3695   1.403       .  A
C3693      C3694   1.401   1_556  A
C3695      C3696   1.399       .  A
C3695      H3702   1.083   1_556  S
C3696      C3697   1.405       .  A
C3696      H3703   1.083       .  S
C3697      C3698   1.410       .  A
C3698      H3704   1.084       .  S
C3705      C3706   1.405       .  A
C3705      C3710   1.412       .  A
C3706      C3707   1.402       .  A
C3706      H3715   1.083       .  S
C3707      C3708   1.405       .  A
C3707      H3716   1.083       .  S
C3708      C3714   1.409       .  A
C3708      C3709   1.413       .  A
C3709      C3711   1.406       .  A
C3709      C3710   1.408       .  A
C3710      H3717   1.084       .  S
C3711      C3712   1.401       .  A
C3711      H3718   1.083       .  S
C3712      C3713   1.402       .  A
C3712      H3719   1.083       .  S
C3713      C3714   1.408       .  A
C3714      H3720   1.084       .  S
C3721      C3722   1.406       .  A
C3721      C3726   1.416       .  A
C3722      C3723   1.408   1_545  A
C3722      H3731   1.083       .  S
C3723      C3724   1.409       .  A
C3723      H3732   1.083       .  S
C3724      C3730   1.414       .  A
C3724      C3725   1.409   1_565  A
C3725      C3727   1.405   1_545  A
C3725      C3726   1.407       .  A
C3726      H3733   1.084       .  S
C3727      C3728   1.401       .  A
C3727      H3734   1.084   1_565  S
C3728      C3729   1.405       .  A
C3728      H3735   1.083       .  S
C3729      C3730   1.419       .  A
C3730      H3736   1.084       .  S
C3737      C3738   1.409       .  A
C3737      C3742   1.409       .  A
C3738      C3739   1.397       .  A
C3738      H3747   1.083       .  S
C3739      C3740   1.400       .  A
C3739      H3748   1.084       .  S
C3740      C3746   1.409       .  A
C3740      C3741   1.416       .  A
C3741      C3743   1.404       .  A
C3741      C3742   1.413       .  A
C3742      H3749   1.084       .  S
C3743      C3744   1.402       .  A
C3743      H3750   1.083       .  S
C3744      C3745   1.405       .  A
C3745      C3746   1.405       .  A
C3746      H3752   1.085       .  S
C3753      C3754   1.406       .  A
C3753      C3758   1.413       .  A
C3754      C3755   1.405       .  A
C3754      H3763   1.083       .  S
C3755      C3756   1.407       .  A
C3755      H3764   1.083       .  S
C3756      C3762   1.410       .  A
C3756      C3757   1.411       .  A
C3757      C3759   1.405       .  A
C3757      C3758   1.404       .  A
C3758      H3765   1.083       .  S
C3759      C3760   1.398       .  A
C3759      H3766   1.083       .  S
C3760      C3761   1.402       .  A
C3760      H3767   1.084       .  S
C3761      C3762   1.410       .  A
C3762      H3768   1.084       .  S
C3769      C3770   1.406       .  A
C3769      C3774   1.409       .  A
C3770      C3771   1.406       .  A
C3770      H3779   1.083       .  S
C3771      C3772   1.407       .  A
C3771      H3780   1.083       .  S
C3772      C3778   1.416       .  A
C3772      C3773   1.414       .  A
C3773      C3775   1.404       .  A
C3773      C3774   1.410       .  A
C3774      H3781   1.084       .  S
C3775      C3776   1.400       .  A
C3775      H3782   1.083       .  S
C3776      C3777   1.403       .  A
C3776      H3783   1.083       .  S
C3777      C3778   1.412       .  A
C3778      H3784   1.084       .  S
C3785      C3786   1.405       .  A
C3785      C3790   1.403       .  A
C3786      C3787   1.394       .  A
C3786      H3795   1.083       .  S
C3787      C3788   1.400       .  A
C3787      H3796   1.084       .  S
C3788      C3794   1.399       .  A
C3788      C3789   1.416       .  A
C3789      C3791   1.401       .  A
C3789      C3790   1.399       .  A
C3790      H3797   1.084       .  S
C3791      C3792   1.394       .  A
C3791      H3798   1.084       .  S
C3792      C3793   1.402       .  A
C3792      H3799   1.084       .  S
C3793      C3794   1.398       .  A
C3794      H3800   1.085       .  S
C3802      C3803   1.408       .  A
C3802      H3811   1.083       .  S
C3803      C3804   1.409       .  A
C3803      H3812   1.083       .  S
C3804      C3810   1.413       .  A
C3804      C3805   1.412       .  A
C3805      C3807   1.402       .  A
C3805      C3806   1.401   1_556  A
C3807      C3808   1.395       .  A
C3807      H3814   1.083   1_556  S
C3808      C3809   1.401       .  A
C3808      H3815   1.084       .  S
C3809      C3810   1.410       .  A
C3810      H3816   1.083       .  S
C3817      C3818   1.404       .  A
C3817      C3822   1.411       .  A
C3818      C3819   1.401       .  A
C3818      H3827   1.083       .  S
C3819      C3820   1.405       .  A
C3819      H3828   1.083       .  S
C3820      C3826   1.406       .  A
C3820      C3821   1.412       .  A
C3821      C3823   1.403       .  A
C3821      C3822   1.402       .  A
C3822      H3829   1.084       .  S
C3823      C3824   1.396       .  A
C3823      H3830   1.083       .  S
C3824      C3825   1.404       .  A
C3824      H3831   1.084       .  S
C3825      C3826   1.408       .  A
C3826      H3832   1.083       .  S
C3833      C3834   1.404       .  A
C3833      C3838   1.414       .  A
C3834      C3835   1.407       .  A
C3834      H3843   1.083       .  S
C3835      C3836   1.408   1_545  A
C3835      H3844   1.083   1_545  S
C3836      C3842   1.418       .  A
C3836      C3837   1.412   1_565  A
C3837      C3839   1.408   1_545  A
C3837      C3838   1.420       .  A
C3838      H3845   1.084       .  S
C3839      C3840   1.408       .  A
C3839      H3846   1.083   1_565  S
C3840      C3841   1.407       .  A
C3840      H3847   1.083       .  S
C3841      C3842   1.417       .  A
C3842      H3848   1.083       .  S
C3849      C3850   1.406       .  A
C3849      C3854   1.414       .  A
C3850      C3851   1.407       .  A
C3850      H3859   1.083       .  S
C3851      C3852   1.408       .  A
C3851      H3860   1.082   1_556  S
C3852      C3853   1.411       .  A
C3853      C3855   1.404       .  A
C3853      C3854   1.407       .  A
C3854      H3861   1.083       .  S
C3855      C3856   1.399       .  A
C3855      H3862   1.083       .  S
C3856      H3863   1.084       .  S
C3857      C3858   1.415       .  A
C3858      H3864   1.083       .  S
C3865      C3866   1.400       .  A
C3865      C3870   1.402       .  A
C3866      C3867   1.398       .  A
C3866      H3875   1.083       .  S
C3867      C3868   1.405       .  A
C3867      H3876   1.084       .  S
C3868      C3874   1.400       .  A
C3868      C3869   1.413       .  A
C3869      C3871   1.402       .  A
C3869      C3870   1.397       .  A
C3870      H3877   1.085       .  S
C3871      C3872   1.395       .  A
C3871      H3878   1.084       .  S
C3872      C3873   1.404       .  A
C3872      H3879   1.083       .  S
C3873      C3874   1.407       .  A
C3874      H3880   1.085       .  S
C3881      C3882   1.403       .  A
C3881      C3886   1.403       .  A
C3882      C3883   1.397       .  A
C3882      H3891   1.083       .  S
C3883      C3884   1.403       .  A
C3883      H3892   1.084       .  S
C3884      C3890   1.401       .  A
C3884      C3885   1.415       .  A
C3885      C3887   1.401       .  A
C3885      C3886   1.396       .  A
C3886      H3893   1.085       .  S
C3887      C3888   1.393       .  A
C3887      H3894   1.084       .  S
C3888      C3889   1.401       .  A
C3888      H3895   1.083       .  S
C3889      C3890   1.401       .  A
C3890      H3896   1.085       .  S
C3897      C3898   1.406       .  A
C3897      C3902   1.415       .  A
C3898      C3899   1.403       .  A
C3898      H3907   1.083       .  S
C3899      C3900   1.405       .  A
C3899      H3908   1.083       .  S
C3900      C3906   1.409       .  A
C3900      C3901   1.412       .  A
C3901      C3903   1.408       .  A
C3901      C3902   1.412       .  A
C3902      H3909   1.083       .  S
C3903      C3904   1.404       .  A
C3903      H3910   1.083       .  S
C3904      C3905   1.403       .  A
C3904      H3911   1.083       .  S
C3905      C3906   1.409       .  A
C3906      H3912   1.084       .  S
C3913      C3914   1.402       .  A
C3913      C3918   1.409       .  A
C3914      C3915   1.400       .  A
C3914      H3923   1.083       .  S
C3915      C3916   1.405       .  A
C3915      H3924   1.083       .  S
C3916      C3922   1.406       .  A
C3916      C3917   1.412       .  A
C3917      C3919   1.405       .  A
C3917      C3918   1.409       .  A
C3918      H3925   1.084       .  S
C3919      C3920   1.403       .  A
C3919      H3926   1.083       .  S
C3920      C3921   1.407       .  A
C3920      H3927   1.083       .  S
C3921      C3922   1.411       .  A
C3922      H3928   1.084       .  S
C3929      C3930   1.407       .  A
C3930      C3931   1.401       .  A
C3930      H3939   1.083       .  S
C3931      H3940   1.084       .  S
C3932      C3938   1.411       .  A
C3932      C3933   1.418       .  A
C3933      C3935   1.399       .  A
C3933      C3934   1.412       .  A
C3934      H3941   1.084       .  S
C3935      C3936   1.397       .  A
C3935      H3942   1.084       .  S
C3936      C3937   1.409       .  A
C3936      H3943   1.083       .  S
C3937      C3938   1.406       .  A
C3938      H3944   1.084       .  S
C3945      C3946   1.402       .  A
C3945      C3950   1.412       .  A
C3946      C3947   1.401       .  A
C3946      H3955   1.083       .  S
C3947      C3948   1.407       .  A
C3947      H3956   1.083       .  S
C3948      C3954   1.403       .  A
C3948      C3949   1.410       .  A
C3949      C3951   1.406       .  A
C3949      C3950   1.403       .  A
C3950      H3957   1.084       .  S
C3951      C3952   1.401       .  A
C3951      H3958   1.083       .  S
C3952      C3953   1.404       .  A
C3952      H3959   1.083       .  S
C3953      C3954   1.414       .  A
C3954      H3960   1.084       .  S
C3961      C3962   1.401       .  A
C3961      C3966   1.409       .  A
C3962      C3963   1.401       .  A
C3962      H3971   1.083       .  S
C3963      C3964   1.405   1_455  A
C3963      H3972   1.083   1_455  S
C3964      C3970   1.408       .  A
C3964      C3965   1.413   1_655  A
C3965      C3967   1.406       .  A
C3965      C3966   1.412       .  A
C3966      H3973   1.084       .  S
C3967      C3968   1.404   1_455  A
C3967      H3974   1.083       .  S
C3968      C3969   1.408       .  A
C3968      H3975   1.083       .  S
C3969      C3970   1.412       .  A
C3970      H3976   1.084       .  S
C3977      C3978   1.407       .  A
C3977      C3982   1.408       .  A
C3978      C3979   1.400       .  A
C3978      H3987   1.083       .  S
C3979      C3980   1.403       .  A
C3979      H3988   1.084   1_556  S
C3980      C3986   1.406   1_556  A
C3980      C3981   1.414       .  A
C3981      C3983   1.403       .  A
C3981      C3982   1.403       .  A
C3982      H3989   1.085       .  S
C3983      C3984   1.397       .  A
C3983      H3990   1.084       .  S
C3984      H3991   1.083       .  S
C3993      C3994   1.408       .  A
C3993      C3998   1.414       .  A
C3994      C3995   1.407       .  A
C3994      H4003   1.083       .  S
C3995      C3996   1.408       .  A
C3995      H4004   1.083       .  S
C3996      C4002   1.415       .  A
C3996      C3997   1.412       .  A
C3997      C3999   1.405       .  A
C3997      C3998   1.409       .  A
C3998      H4005   1.083       .  S
C3999      C4000   1.400       .  A
C3999      H4006   1.083       .  S
C4000      C4001   1.403       .  A
C4000      H4007   1.083       .  S
C4001      C4002   1.413       .  A
C4002      H4008   1.084       .  S
C4009      C4010   1.404       .  A
C4009      C4014   1.403       .  A
C4010      C4011   1.391       .  A
C4010      H4019   1.083       .  S
C4011      C4012   1.399       .  A
C4011      H4020   1.084       .  S
C4012      C4018   1.393       .  A
C4012      C4013   1.415       .  A
C4013      C4015   1.402       .  A
C4013      C4014   1.397       .  A
C4014      H4021   1.085       .  S
C4015      C4016   1.395       .  A
C4015      H4022   1.084       .  S
C4016      C4017   1.402       .  A
C4016      H4023   1.083       .  S
C4017      C4018   1.398       .  A
C4018      H4024   1.086       .  S
C4025      C4026   1.409       .  A
C4026      C4027   1.402       .  A
C4026      H4035   1.084       .  S
C4027      H4036   1.083       .  S
C4028      C4034   1.418       .  A
C4028      C4029   1.416       .  A
C4029      C4031   1.397       .  A
C4029      C4030   1.410       .  A
C4030      H4037   1.084       .  S
C4031      C4032   1.395       .  A
C4031      H4038   1.084       .  S
C4032      C4033   1.411       .  A
C4032      H4039   1.083       .  S
C4033      C4034   1.410       .  A
C4034      H4040   1.083       .  S
C4041      C4042   1.411       .  A
C4041      C4046   1.410       .  A
C4042      C4043   1.394       .  A
C4042      H4051   1.083       .  S
C4043      C4044   1.398       .  A
C4043      H4052   1.084       .  S
C4044      C4050   1.405       .  A
C4044      C4045   1.414       .  A
C4045      C4047   1.405       .  A
C4045      C4046   1.413       .  A
C4046      H4053   1.084       .  S
C4047      C4048   1.404       .  A
C4047      H4054   1.084       .  S
C4048      C4049   1.406       .  A
C4048      H4055   1.083       .  S
C4049      C4050   1.404       .  A
C4050      H4056   1.086       .  S
C4057      C4058   1.402       .  A
C4057      C4062   1.396       .  A
C4058      C4059   1.397       .  A
C4058      H4067   1.083       .  S
C4059      C4060   1.403       .  A
C4059      H4068   1.084       .  S
C4060      C4066   1.397       .  A
C4060      C4061   1.414       .  A
C4061      C4063   1.395       .  A
C4061      C4062   1.385       .  A
C4062      H4069   1.086       .  S
C4063      C4064   1.384       .  A
C4063      H4070   1.084       .  S
C4064      C4065   1.405       .  A
C4064      H4071   1.083       .  S
C4065      C4066   1.403       .  A
C4066      H4072   1.084       .  S
C4073      C4074   1.404       .  A
C4073      C4078   1.411       .  A
C4074      C4075   1.401       .  A
C4074      H4083   1.083       .  S
C4075      C4076   1.406       .  A
C4075      H4084   1.083   1_556  S
C4076      C4082   1.403       .  A
C4076      C4077   1.410       .  A
C4077      C4079   1.405       .  A
C4077      C4078   1.400       .  A
C4078      H4085   1.084       .  S
C4079      H4086   1.084       .  S
C4080      C4081   1.404       .  A
C4080      H4087   1.083       .  S
C4082      H4088   1.084   1_556  S
C4089      C4090   1.404       .  A
C4089      C4094   1.415       .  A
C4090      C4091   1.404       .  A
C4090      H4099   1.083       .  S
C4091      C4092   1.407       .  A
C4091      H4100   1.083       .  S
C4092      C4098   1.409       .  A
C4092      C4093   1.410       .  A
C4093      C4095   1.407       .  A
C4093      C4094   1.410       .  A
C4094      H4101   1.084       .  S
C4095      C4096   1.404       .  A
C4095      H4102   1.083       .  S
C4096      C4097   1.405       .  A
C4096      H4103   1.083       .  S
C4097      C4098   1.415       .  A
C4098      H4104   1.083       .  S
C4105      C4106   1.406       .  A
C4105      C4110   1.415       .  A
C4106      C4107   1.405       .  A
C4106      H4115   1.083       .  S
C4107      C4108   1.406       .  A
C4107      H4116   1.083       .  S
C4108      C4114   1.412       .  A
C4108      C4109   1.411       .  A
C4109      C4111   1.405       .  A
C4109      C4110   1.410       .  A
C4110      H4117   1.084       .  S
C4111      C4112   1.402       .  A
C4111      H4118   1.083       .  S
C4112      C4113   1.407       .  A
C4112      H4119   1.083       .  S
C4113      C4114   1.415       .  A
C4114      H4120   1.084       .  S
C4121      C4126   1.403       .  A
C4122      C4123   1.400       .  A
C4122      H4131   1.084   1_554  S
C4123      H4132   1.083       .  S
C4124      C4130   1.418       .  A
C4124      C4125   1.418       .  A
C4125      C4127   1.395       .  A
C4125      C4126   1.412       .  A
C4126      H4133   1.084       .  S
C4127      C4128   1.394       .  A
C4127      H4134   1.084       .  S
C4128      C4129   1.415       .  A
C4128      H4135   1.083       .  S
C4129      C4130   1.409       .  A
C4130      H4136   1.084       .  S
C4137      C4138   1.403       .  A
C4137      C4142   1.413       .  A
C4138      C4139   1.398       .  A
C4138      H4147   1.083       .  S
C4139      C4140   1.404       .  A
C4139      H4148   1.083       .  S
C4140      C4146   1.399       .  A
C4140      C4141   1.410       .  A
C4141      C4143   1.408       .  A
C4141      C4142   1.403       .  A
C4142      H4149   1.083       .  S
C4143      C4144   1.402       .  A
C4143      H4150   1.083       .  S
C4144      C4145   1.401       .  A
C4144      H4151   1.083       .  S
C4145      C4146   1.408       .  A
C4146      H4152   1.084       .  S
C4153      C4154   1.410       .  A
C4153      C4158   1.404   1_554  A
C4154      C4155   1.408       .  A
C4155      C4156   1.406   1_554  A
C4155      H4164   1.083       .  S
C4156      C4162   1.423       .  A
C4156      C4157   1.416       .  A
C4157      C4159   1.397       .  A
C4157      C4158   1.410       .  A
C4158      H4165   1.084       .  S
C4159      C4160   1.394       .  A
C4159      H4166   1.084       .  S
C4160      C4161   1.409       .  A
C4160      H4167   1.084       .  S
C4161      C4162   1.413       .  A
C4162      H4168   1.084       .  S
C4169      C4170   1.399       .  A
C4169      C4174   1.407       .  A
C4170      C4171   1.393       .  A
C4170      H4179   1.083       .  S
C4171      C4172   1.402       .  A
C4171      H4180   1.084       .  S
C4172      C4178   1.397       .  A
C4172      C4173   1.413       .  A
C4173      C4175   1.407       .  A
C4173      C4174   1.408       .  A
C4174      H4181   1.085       .  S
C4175      C4176   1.404       .  A
C4175      H4182   1.084       .  S
C4176      C4177   1.406       .  A
C4176      H4183   1.083       .  S
C4177      C4178   1.408       .  A
C4178      H4184   1.084       .  S
C4185      C4186   1.403       .  A
C4185      C4190   1.404       .  A
C4186      C4187   1.386       .  A
C4186      H4195   1.084       .  S
C4187      C4188   1.396       .  A
C4187      H4196   1.084       .  S
C4188      C4194   1.389       .  A
C4188      C4189   1.416       .  A
C4189      C4191   1.406       .  A
C4189      C4190   1.403       .  A
C4190      H4197   1.084       .  S
C4191      C4192   1.401       .  A
C4191      H4198   1.084       .  S
C4192      C4193   1.403       .  A
C4192      H4199   1.083       .  S
C4193      C4194   1.397       .  A
C4194      H4200   1.086       .  S
C4201      C4202   1.404       .  A
C4201      C4206   1.410       .  A
C4202      C4203   1.404       .  A
C4202      H4211   1.083       .  S
C4203      C4204   1.407       .  A
C4203      H4212   1.083   1_556  S
C4204      C4210   1.408       .  A
C4204      C4205   1.411       .  A
C4205      C4207   1.403       .  A
C4205      C4206   1.402       .  A
C4206      H4213   1.084       .  S
C4207      C4208   1.397       .  A
C4207      H4214   1.083       .  S
C4208      C4209   1.403       .  A
C4208      H4215   1.084       .  S
C4209      C4210   1.411       .  A
C4210      H4216   1.084   1_556  S
C4217      C4218   1.407       .  A
C4217      C4222   1.406       .  A
C4218      C4219   1.399       .  A
C4218      H4227   1.084       .  S
C4219      C4220   1.401       .  A
C4219      H4228   1.084       .  S
C4220      C4226   1.412       .  A
C4220      C4221   1.417       .  A
C4221      C4223   1.402       .  A
C4221      C4222   1.414       .  A
C4222      H4229   1.084       .  S
C4223      C4224   1.400       .  A
C4223      H4230   1.084       .  S
C4224      C4225   1.407       .  A
C4224      H4231   1.083       .  S
C4225      C4226   1.405       .  A
C4226      H4232   1.084       .  S
C4233      C4234   1.404       .  A
C4233      C4238   1.407       .  A
C4234      C4235   1.406   1_655  A
C4234      H4243   1.083       .  S
C4235      C4236   1.408       .  A
C4235      H4244   1.083       .  S
C4236      C4242   1.413       .  A
C4236      C4237   1.413   1_455  A
C4237      C4239   1.403   1_655  A
C4237      C4238   1.407       .  A
C4238      H4245   1.084       .  S
C4239      C4240   1.399       .  A
C4239      H4246   1.083   1_455  S
C4240      C4241   1.406       .  A
C4240      H4247   1.083       .  S
C4241      C4242   1.414       .  A
C4242      H4248   1.084       .  S
C4249      C4250   1.404       .  A
C4249      C4254   1.405       .  A
C4250      C4251   1.397       .  A
C4250      H4259   1.083       .  S
C4251      C4252   1.402       .  A
C4251      H4260   1.084       .  S
C4252      C4258   1.399       .  A
C4252      C4253   1.414       .  A
C4253      C4255   1.403       .  A
C4253      C4254   1.398       .  A
C4254      H4261   1.085       .  S
C4255      C4256   1.395       .  A
C4255      H4262   1.083       .  S
C4256      C4257   1.400       .  A
C4256      H4263   1.084       .  S
C4257      C4258   1.401       .  A
C4258      H4264   1.085       .  S
C4265      C4266   1.402       .  A
C4265      C4270   1.414       .  A
C4266      C4267   1.403       .  A
C4266      H4275   1.083       .  S
C4267      C4268   1.407       .  A
C4267      H4276   1.083       .  S
C4268      C4274   1.405       .  A
C4268      C4269   1.410       .  A
C4269      C4271   1.408       .  A
C4269      C4270   1.407       .  A
C4270      H4277   1.084       .  S
C4271      C4272   1.404       .  A
C4271      H4278   1.083       .  S
C4272      C4273   1.402       .  A
C4272      H4279   1.083       .  S
C4273      C4274   1.413       .  A
C4274      H4280   1.084       .  S
C4281      C4282   1.408       .  A
C4281      C4286   1.401       .  A
C4282      C4283   1.392       .  A
C4282      H4291   1.083       .  S
C4283      C4284   1.397       .  A
C4283      H4292   1.084       .  S
C4284      C4290   1.400       .  A
C4284      C4285   1.417       .  A
C4285      C4287   1.400       .  A
C4285      C4286   1.403       .  A
C4286      H4293   1.084       .  S
C4287      C4288   1.394       .  A
C4287      H4294   1.084       .  S
C4288      C4289   1.405       .  A
C4288      H4295   1.083       .  S
C4289      C4290   1.398       .  A
C4290      H4296   1.085       .  S
C4297      C4298   1.408       .  A
C4297      C4302   1.416       .  A
C4298      C4299   1.406       .  A
C4298      H4307   1.083       .  S
C4299      C4300   1.407       .  A
C4299      H4308   1.083       .  S
C4300      C4306   1.417       .  A
C4300      C4301   1.411       .  A
C4301      C4303   1.406       .  A
C4301      C4302   1.416       .  A
C4302      H4309   1.083       .  S
C4303      C4304   1.405       .  A
C4303      H4310   1.083       .  S
C4304      C4305   1.408       .  A
C4304      H4311   1.083       .  S
C4305      C4306   1.417       .  A
C4306      H4312   1.083       .  S
C4313      C4314   1.402       .  A
C4313      C4318   1.402       .  A
C4314      C4315   1.388       .  A
C4314      H4323   1.084       .  S
C4315      C4316   1.398       .  A
C4315      H4324   1.084       .  S
C4316      C4322   1.391       .  A
C4316      C4317   1.415       .  A
C4317      C4319   1.405       .  A
C4317      C4318   1.402       .  A
C4318      H4325   1.085       .  S
C4319      C4320   1.400       .  A
C4319      H4326   1.084       .  S
C4320      C4321   1.403       .  A
C4320      H4327   1.083       .  S
C4321      C4322   1.399       .  A
C4322      H4328   1.086       .  S
C4329      C4330   1.404       .  A
C4329      C4334   1.415       .  A
C4330      C4331   1.405       .  A
C4330      H4339   1.083       .  S
C4331      C4332   1.408       .  A
C4331      H4340   1.083       .  S
C4332      C4338   1.409       .  A
C4332      C4333   1.409       .  A
C4333      C4335   1.406       .  A
C4333      C4334   1.407       .  A
C4334      H4341   1.084       .  S
C4335      C4336   1.403       .  A
C4335      H4342   1.083       .  S
C4336      C4337   1.404       .  A
C4336      H4343   1.083       .  S
C4337      C4338   1.417       .  A
C4345      C4346   1.403       .  A
C4345      C4350   1.411       .  A
C4346      C4347   1.399       .  A
C4346      H4355   1.083       .  S
C4347      C4348   1.405       .  A
C4347      H4356   1.083       .  S
C4348      C4354   1.402       .  A
C4348      C4349   1.410       .  A
C4349      C4351   1.405       .  A
C4349      C4350   1.402       .  A
C4350      H4357   1.083       .  S
C4351      C4352   1.399       .  A
C4351      H4358   1.083       .  S
C4352      C4353   1.405       .  A
C4352      H4359   1.083       .  S
C4353      C4354   1.411       .  A
C4354      H4360   1.083       .  S
C4361      C4362   1.403       .  A
C4361      C4366   1.414       .  A
C4362      C4363   1.403       .  A
C4362      H4371   1.083       .  S
C4363      C4364   1.407       .  A
C4363      H4372   1.083       .  S
C4364      C4370   1.407       .  A
C4364      C4365   1.410       .  A
C4365      C4367   1.407       .  A
C4365      C4366   1.407       .  A
C4366      H4373   1.084       .  S
C4367      C4368   1.403       .  A
C4367      H4374   1.083       .  S
C4368      C4369   1.404       .  A
C4368      H4375   1.083       .  S
C4369      C4370   1.414       .  A
C4370      H4376   1.084       .  S
C4377      C4378   1.403       .  A
C4377      C4382   1.411       .  A
C4378      C4379   1.400       .  A
C4379      C4380   1.406       .  A
C4379      H4388   1.083       .  S
C4380      C4386   1.401       .  A
C4380      C4381   1.409       .  A
C4381      C4383   1.405       .  A
C4381      C4382   1.400       .  A
C4382      H4389   1.083       .  S
C4383      C4384   1.399       .  A
C4383      H4390   1.083       .  S
C4384      C4385   1.403       .  A
C4384      H4391   1.083       .  S
C4385      C4386   1.414       .  A
C4386      H4392   1.083       .  S
C4393      C4394   1.404       .  A
C4393      C4398   1.405       .  A
C4394      C4395   1.391       .  A
C4394      H4403   1.083       .  S
C4395      C4396   1.399       .  A
C4395      H4404   1.084       .  S
C4396      C4402   1.394       .  A
C4396      C4397   1.415       .  A
C4397      C4399   1.404       .  A
C4397      C4398   1.400       .  A
C4398      H4405   1.084       .  S
C4399      C4400   1.398       .  A
C4399      H4406   1.084   1_556  S
C4400      C4401   1.401       .  A
C4400      H4407   1.083   1_556  S
C4401      C4402   1.398       .  A
C4402      H4408   1.085       .  S
C4409      C4410   1.405   1_556  A
C4409      C4414   1.415       .  A
C4410      C4411   1.398       .  A
C4410      H4419   1.083       .  S
C4411      C4412   1.404   1_554  A
C4411      H4420   1.083       .  S
C4412      C4418   1.403       .  A
C4412      C4413   1.410       .  A
C4413      C4415   1.408       .  A
C4413      C4414   1.409       .  A
C4415      C4416   1.405       .  A
C4416      C4417   1.406       .  A
C4416      H4423   1.083       .  S
C4417      C4418   1.413       .  A
C4418      H4424   1.083       .  S
C4425      C4426   1.404       .  A
C4425      C4430   1.414       .  A
C4426      C4427   1.404       .  A
C4426      H4435   1.083       .  S
C4427      C4428   1.407       .  A
C4427      H4436   1.083       .  S
C4428      C4434   1.409   1_565  A
C4428      C4429   1.411       .  A
C4429      C4431   1.407   1_565  A
C4429      C4430   1.405       .  A
C4430      H4437   1.083       .  S
C4431      C4432   1.401       .  A
C4431      H4438   1.083       .  S
C4432      C4433   1.401       .  A
C4432      H4439   1.083       .  S
C4433      C4434   1.409       .  A
C4434      H4440   1.084   1_545  S
C4441      C4442   1.406       .  A
C4441      C4446   1.412       .  A
C4442      C4443   1.404       .  A
C4442      H4451   1.083       .  S
C4443      C4444   1.407       .  A
C4443      H4452   1.083       .  S
C4444      C4450   1.409   1_565  A
C4444      C4445   1.411       .  A
C4445      C4447   1.404   1_565  A
C4445      C4446   1.403       .  A
C4446      H4453   1.084       .  S
C4447      C4448   1.398       .  A
C4447      H4454   1.083       .  S
C4448      C4449   1.403       .  A
C4448      H4455   1.083       .  S
C4449      C4450   1.410       .  A
C4450      H4456   1.084       .  S
C4457      C4462   1.404       .  A
C4458      C4459   1.384       .  A
C4458      H4467   1.083       .  S
C4459      C4460   1.396       .  A
C4459      H4468   1.084       .  S
C4460      C4466   1.385   1_565  A
C4461      C4463   1.403       .  A
C4461      C4462   1.393   1_545  A
C4462      H4469   1.085       .  S
C4463      C4464   1.396       .  A
C4463      H4470   1.084       .  S
C4464      H4471   1.083       .  S
C4465      C4466   1.399       .  A
C4466      H4472   1.085       .  S
C4473      C4474   1.406       .  A
C4473      C4478   1.400       .  A
C4474      C4475   1.401       .  A
C4474      H4483   1.083       .  S
C4475      C4476   1.403       .  A
C4475      H4484   1.084       .  S
C4476      C4482   1.412       .  A
C4476      C4477   1.417       .  A
C4477      C4479   1.396       .  A
C4477      C4478   1.404       .  A
C4478      H4485   1.085       .  S
C4479      C4480   1.392       .  A
C4479      H4486   1.084       .  S
C4480      C4481   1.411       .  A
C4480      H4487   1.083       .  S
C4481      C4482   1.407       .  A
C4482      H4488   1.084       .  S
C4489      C4490   1.401       .  A
C4489      C4494   1.409       .  A
C4490      C4491   1.400       .  A
C4490      H4499   1.083       .  S
C4491      C4492   1.405       .  A
C4491      H4500   1.083       .  S
C4492      C4498   1.405       .  A
C4492      C4493   1.412       .  A
C4493      C4495   1.407       .  A
C4493      C4494   1.409       .  A
C4494      H4501   1.084       .  S
C4495      C4496   1.404       .  A
C4495      H4502   1.083       .  S
C4496      C4497   1.403       .  A
C4497      C4498   1.409       .  A
C4498      H4504   1.084       .  S
C4505      C4506   1.401       .  A
C4505      C4510   1.404       .  A
C4506      C4507   1.389       .  A
C4506      H4515   1.083       .  S
C4507      C4508   1.399       .  A
C4507      H4516   1.085       .  S
C4508      C4514   1.391       .  A
C4508      C4509   1.415       .  A
C4509      C4511   1.406       .  A
C4509      C4510   1.401       .  A
C4510      H4517   1.085       .  S
C4511      C4512   1.400       .  A
C4511      H4518   1.084       .  S
C4512      C4513   1.402       .  A
C4512      H4519   1.083       .  S
C4513      C4514   1.400       .  A
C4514      H4520   1.086       .  S
C4521      C4522   1.401       .  A
C4521      C4526   1.412       .  A
C4522      C4523   1.401       .  A
C4522      H4531   1.083       .  S
C4523      C4524   1.406       .  A
C4523      H4532   1.083       .  S
C4524      C4530   1.408       .  A
C4524      C4525   1.411       .  A
C4525      C4527   1.408       .  A
C4525      C4526   1.412       .  A
C4526      H4533   1.084       .  S
C4527      C4528   1.406       .  A
C4527      H4534   1.083       .  S
C4528      C4529   1.405       .  A
C4528      H4535   1.083       .  S
C4529      C4530   1.413       .  A
C4530      H4536   1.084       .  S
C4537      C4538   1.406       .  A
C4537      C4542   1.415       .  A
C4538      C4539   1.405       .  A
C4538      H4547   1.083       .  S
C4539      C4540   1.407       .  A
C4539      H4548   1.083       .  S
C4540      C4546   1.412       .  A
C4540      C4541   1.411       .  A
C4541      C4543   1.406       .  A
C4541      C4542   1.409       .  A
C4542      H4549   1.083       .  S
C4543      C4544   1.402       .  A
C4543      H4550   1.083       .  S
C4544      C4545   1.403       .  A
C4544      H4551   1.083       .  S
C4545      C4546   1.411       .  A
C4546      H4552   1.084       .  S
C4553      C4554   1.409       .  A
C4553      C4558   1.417       .  A
C4554      C4555   1.395       .  A
C4554      H4563   1.083       .  S
C4555      C4556   1.398       .  A
C4555      H4564   1.084       .  S
C4556      C4562   1.408       .  A
C4556      C4557   1.414       .  A
C4557      C4559   1.409       .  A
C4557      C4558   1.422       .  A
C4558      H4565   1.083       .  S
C4559      C4560   1.410       .  A
C4559      H4566   1.083       .  S
C4560      C4561   1.409       .  A
C4560      H4567   1.083       .  S
C4561      C4562   1.408       .  A
C4562      H4568   1.084       .  S
C4569      C4570   1.401       .  A
C4569      C4574   1.397       .  A
C4570      C4571   1.396       .  A
C4570      H4579   1.083       .  S
C4571      C4572   1.403   1_545  A
C4571      H4580   1.084       .  S
C4572      C4578   1.397       .  A
C4572      C4573   1.416       .  A
C4573      C4575   1.397       .  A
C4573      C4574   1.389   1_565  A
C4574      H4581   1.086       .  S
C4575      C4576   1.387       .  A
C4575      H4582   1.084       .  S
C4576      C4577   1.403       .  A
C4576      H4583   1.083       .  S
C4577      C4578   1.401       .  A
C4578      H4584   1.085       .  S
C4585      C4586   1.405       .  A
C4585      C4590   1.413       .  A
C4586      C4587   1.407       .  A
C4586      H4595   1.083       .  S
C4587      C4588   1.409       .  A
C4587      H4596   1.082       .  S
C4588      C4594   1.414   1_545  A
C4588      C4589   1.412   1_545  A
C4589      C4591   1.404       .  A
C4589      C4590   1.405   1_565  A
C4590      H4597   1.083       .  S
C4591      C4592   1.398       .  A
C4591      H4598   1.083       .  S
C4592      C4593   1.402       .  A
C4592      H4599   1.084       .  S
C4593      C4594   1.412       .  A
C4594      H4600   1.083       .  S
C4601      C4602   1.406       .  A
C4601      C4606   1.409       .  A
C4602      C4603   1.407       .  A
C4602      H4611   1.083       .  S
C4603      C4604   1.408   1_545  A
C4603      H4612   1.083       .  S
C4604      C4610   1.413       .  A
C4604      C4605   1.413       .  A
C4605      C4607   1.400       .  A
C4605      C4606   1.399   1_565  A
C4606      H4613   1.084       .  S
C4607      C4608   1.392       .  A
C4607      H4614   1.083       .  S
C4608      C4609   1.403       .  A
C4608      H4615   1.084       .  S
C4609      C4610   1.410       .  A
C4610      H4616   1.084       .  S
C4617      C4618   1.402       .  A
C4617      C4622   1.411       .  A
C4618      C4619   1.398       .  A
C4618      H4627   1.084       .  S
C4619      C4620   1.404       .  A
C4619      H4628   1.083       .  S
C4620      C4626   1.406       .  A
C4620      C4621   1.412       .  A
C4621      C4623   1.408       .  A
C4621      C4622   1.414       .  A
C4622      H4629   1.084       .  S
C4623      C4624   1.407       .  A
C4623      H4630   1.083       .  S
C4624      C4625   1.407       .  A
C4624      H4631   1.083       .  S
C4625      C4626   1.414       .  A
C4626      H4632   1.084       .  S
C4633      C4634   1.401       .  A
C4633      C4638   1.407       .  A
C4634      C4635   1.399       .  A
C4634      H4643   1.083       .  S
C4635      C4636   1.405       .  A
C4635      H4644   1.083       .  S
C4636      C4642   1.404       .  A
C4636      C4637   1.412       .  A
C4637      C4639   1.404       .  A
C4637      C4638   1.405       .  A
C4638      H4645   1.084       .  S
C4639      C4640   1.400       .  A
C4639      H4646   1.083       .  S
C4640      C4641   1.406       .  A
C4640      H4647   1.083       .  S
C4641      C4642   1.411       .  A
C4642      H4648   1.084       .  S
C4649      C4650   1.406       .  A
C4649      C4654   1.406       .  A
C4650      C4651   1.412       .  A
C4650      H4659   1.083       .  S
C4651      C4652   1.411       .  A
C4651      H4660   1.083       .  S
C4652      C4658   1.421       .  A
C4652      C4653   1.413       .  A
C4653      C4655   1.398       .  A
C4653      C4654   1.401       .  A
C4654      H4661   1.085       .  S
C4655      C4656   1.391       .  A
C4655      H4662   1.084       .  S
C4656      C4657   1.406       .  A
C4656      H4663   1.084       .  S
C4657      C4658   1.415       .  A
C4658      H4664   1.083       .  S
C4665      C4666   1.406       .  A
C4665      C4670   1.408       .  A
C4666      C4667   1.397       .  A
C4666      H4675   1.083       .  S
C4667      C4668   1.402       .  A
C4667      H4676   1.084       .  S
C4668      C4674   1.404       .  A
C4668      C4669   1.414       .  A
C4669      C4671   1.403       .  A
C4669      C4670   1.405       .  A
C4670      H4677   1.084       .  S
C4671      C4672   1.398       .  A
C4671      H4678   1.084       .  S
C4672      C4673   1.404       .  A
C4672      H4679   1.083       .  S
C4673      C4674   1.406       .  A
C4674      H4680   1.085       .  S
C4681      C4686   1.401       .  A
C4682      H4691   1.083       .  S
C4683      C4684   1.404       .  A
C4684      C4690   1.395       .  A
C4684      C4685   1.414       .  A
C4685      C4687   1.402       .  A
C4685      C4686   1.390       .  A
C4686      H4693   1.085       .  S
C4687      C4688   1.393       .  A
C4687      H4694   1.084       .  S
C4688      C4689   1.398       .  A
C4688      H4695   1.083       .  S
C4689      C4690   1.401       .  A
C4690      H4696   1.085       .  S
C4697      C4698   1.405       .  A
C4697      C4702   1.413       .  A
C4698      C4699   1.406       .  A
C4698      H4707   1.083       .  S
C4699      C4700   1.408       .  A
C4699      H4708   1.083       .  S
C4700      C4706   1.411       .  A
C4700      C4701   1.411       .  A
C4701      C4703   1.405       .  A
C4701      C4702   1.405       .  A
C4702      H4709   1.084       .  S
C4703      C4704   1.399       .  A
C4703      H4710   1.083       .  S
C4704      C4705   1.401       .  A
C4704      H4711   1.083       .  S
C4705      C4706   1.411       .  A
C4706      H4712   1.084       .  S
C4713      C4714   1.405       .  A
C4713      C4718   1.413       .  A
C4714      C4715   1.401       .  A
C4715      C4716   1.405       .  A
C4715      H4724   1.083       .  S
C4716      C4722   1.405       .  A
C4716      C4717   1.412       .  A
C4717      C4719   1.407       .  A
C4717      C4718   1.405       .  A
C4718      H4725   1.084       .  S
C4719      C4720   1.401       .  A
C4719      H4726   1.083       .  S
C4720      C4721   1.401       .  A
C4720      H4727   1.083       .  S
C4721      C4722   1.406       .  A
C4722      H4728   1.085       .  S
C4729      C4730   1.406       .  A
C4729      C4734   1.414       .  A
C4730      C4731   1.402       .  A
C4730      H4739   1.083       .  S
C4731      C4732   1.405       .  A
C4731      H4740   1.083       .  S
C4732      C4738   1.412       .  A
C4732      C4733   1.413       .  A
C4733      C4735   1.407       .  A
C4733      C4734   1.416       .  A
C4734      H4741   1.084       .  S
C4735      C4736   1.406       .  A
C4735      H4742   1.083   1_556  S
C4736      C4737   1.405       .  A
C4736      H4743   1.083   1_556  S
C4737      C4738   1.411       .  A
C4738      H4744   1.084       .  S
C4745      C4746   1.403       .  A
C4745      C4750   1.403       .  A
C4746      C4747   1.399       .  A
C4746      H4755   1.083       .  S
C4747      C4748   1.405       .  A
C4747      H4756   1.084       .  S
C4748      C4754   1.400       .  A
C4748      C4749   1.412       .  A
C4749      C4751   1.398       .  A
C4749      C4750   1.391       .  A
C4750      H4757   1.085       .  S
C4751      C4752   1.390       .  A
C4751      H4758   1.084       .  S
C4752      C4753   1.405       .  A
C4752      H4759   1.083       .  S
C4753      C4754   1.407       .  A
C4754      H4760   1.084       .  S
C4761      C4762   1.407       .  A
C4761      C4766   1.413       .  A
C4762      C4763   1.409       .  A
C4762      H4771   1.083       .  S
C4763      C4764   1.409       .  A
C4763      H4772   1.082       .  S
C4764      C4770   1.416       .  A
C4764      C4765   1.411       .  A
C4765      C4767   1.403       .  A
C4765      C4766   1.405       .  A
C4766      H4773   1.083       .  S
C4767      C4768   1.398       .  A
C4767      H4774   1.083       .  S
C4768      C4769   1.404       .  A
C4768      H4775   1.084       .  S
C4769      C4770   1.416       .  A
C4770      H4776   1.083       .  S
C4777      C4778   1.405       .  A
C4777      C4782   1.410       .  A
C4778      C4779   1.400       .  A
C4778      H4787   1.083       .  S
C4779      C4780   1.404       .  A
C4779      H4788   1.084       .  S
C4780      C4786   1.402       .  A
C4780      C4781   1.412       .  A
C4781      C4783   1.406       .  A
C4781      C4782   1.400       .  A
C4783      C4784   1.399       .  A
C4783      H4790   1.084       .  S
C4784      C4785   1.400       .  A
C4784      H4791   1.083       .  S
C4785      C4786   1.404       .  A
C4786      H4792   1.085       .  S
C4793      C4794   1.403       .  A
C4793      C4798   1.398       .  A
C4794      C4795   1.396       .  A
C4794      H4803   1.084       .  S
C4795      C4796   1.401       .  A
C4795      H4804   1.084       .  S
C4796      C4802   1.403       .  A
C4796      C4797   1.417       .  A
C4797      C4799   1.398       .  A
C4797      C4798   1.401       .  A
C4798      H4805   1.085       .  S
C4799      C4800   1.393       .  A
C4799      H4806   1.084       .  S
C4800      C4801   1.407       .  A
C4800      H4807   1.083       .  S
C4801      C4802   1.404       .  A
C4802      H4808   1.084       .  S
C4809      C4810   1.407       .  A
C4809      C4814   1.408       .  A
C4810      C4811   1.388       .  A
C4810      H4819   1.083       .  S
C4811      C4812   1.396       .  A
C4811      H4820   1.085       .  S
C4812      C4818   1.395       .  A
C4812      C4813   1.414       .  A
C4813      C4815   1.406       .  A
C4813      C4814   1.409       .  A
C4814      H4821   1.085       .  S
C4815      C4816   1.403       .  A
C4815      H4822   1.084       .  S
C4816      C4817   1.405       .  A
C4816      H4823   1.083       .  S
C4817      C4818   1.402       .  A
C4818      H4824   1.086       .  S
C4825      C4826   1.408       .  A
C4825      C4830   1.408       .  A
C4826      C4827   1.405       .  A
C4826      H4835   1.083       .  S
C4827      C4828   1.406       .  A
C4827      H4836   1.083       .  S
C4828      C4834   1.416       .  A
C4828      C4829   1.414       .  A
C4829      C4831   1.402       .  A
C4829      C4830   1.410       .  A
C4830      H4837   1.084       .  S
C4831      C4832   1.399       .  A
C4831      H4838   1.083       .  S
C4832      C4833   1.408       .  A
C4832      H4839   1.083       .  S
C4833      C4834   1.414       .  A
C4841      C4842   1.407       .  A
C4841      C4846   1.405       .  A
C4842      C4843   1.399       .  A
C4842      H4851   1.083       .  S
C4843      C4844   1.401       .  A
C4843      H4852   1.084       .  S
C4844      C4850   1.412       .  A
C4844      C4845   1.417       .  A
C4845      C4847   1.401       .  A
C4845      C4846   1.411       .  A
C4846      H4853   1.084       .  S
C4847      C4848   1.398       .  A
C4847      H4854   1.084       .  S
C4848      C4849   1.408       .  A
C4848      H4855   1.083       .  S
C4849      C4850   1.406       .  A
C4850      H4856   1.084       .  S
C4857      C4858   1.405       .  A
C4857      C4862   1.410       .  A
C4858      C4859   1.404       .  A
C4858      H4867   1.083       .  S
C4859      C4860   1.406       .  A
C4859      H4868   1.083       .  S
C4860      C4866   1.408       .  A
C4860      C4861   1.412       .  A
C4861      C4863   1.403       .  A
C4861      C4862   1.402       .  A
C4863      C4864   1.396       .  A
C4863      H4870   1.083       .  S
C4864      C4865   1.402       .  A
C4864      H4871   1.084       .  S
C4865      C4866   1.409       .  A
C4866      H4872   1.084       .  S
C4873      C4874   1.406       .  A
C4873      C4878   1.413       .  A
C4874      C4875   1.403       .  A
C4874      H4883   1.083       .  S
C4875      C4876   1.404       .  A
C4875      H4884   1.083       .  S
C4876      C4882   1.413       .  A
C4876      C4877   1.414       .  A
C4877      C4879   1.406       .  A
C4877      C4878   1.413       .  A
C4878      H4885   1.084       .  S
C4879      C4880   1.403       .  A
C4879      H4886   1.083       .  S
C4880      C4881   1.404       .  A
C4880      H4887   1.083       .  S
C4881      C4882   1.409       .  A
C4882      H4888   1.084       .  S
C4889      C4890   1.407       .  A
C4889      C4894   1.415       .  A
C4890      C4891   1.409       .  A
C4890      H4899   1.083       .  S
C4891      C4892   1.409       .  A
C4891      H4900   1.082       .  S
C4892      C4898   1.418   1_455  A
C4892      C4893   1.411       .  A
C4893      C4895   1.405   1_455  A
C4893      C4894   1.408       .  A
C4894      H4901   1.083       .  S
C4895      C4896   1.400       .  A
C4895      H4902   1.083       .  S
C4896      C4897   1.402       .  A
C4896      H4903   1.084       .  S
C4897      C4898   1.415       .  A
C4898      H4904   1.083       .  S
C4905      C4906   1.405       .  A
C4905      C4910   1.403       .  A
C4906      C4907   1.401       .  A
C4906      H4915   1.083       .  S
C4907      C4908   1.404       .  A
C4907      H4916   1.084   1_455  S
C4908      C4914   1.411   1_455  A
C4908      C4909   1.416       .  A
C4909      C4911   1.400       .  A
C4909      C4910   1.406       .  A
C4910      H4917   1.085       .  S
C4911      C4912   1.396   1_455  A
C4911      H4918   1.084       .  S
C4912      C4913   1.408       .  A
C4912      H4919   1.083       .  S
C4913      C4914   1.408       .  A
C4914      H4920   1.084       .  S
C4921      C4922   1.405       .  A
C4921      C4926   1.403       .  A
C4922      C4923   1.390   1_455  A
C4922      H4931   1.083       .  S
C4923      C4924   1.398       .  A
C4923      H4932   1.084       .  S
C4924      C4930   1.394       .  A
C4924      C4925   1.414   1_655  A
C4925      C4927   1.400       .  A
C4925      C4926   1.396       .  A
C4926      H4933   1.085       .  S
C4927      C4928   1.393   1_455  A
C4927      H4934   1.084       .  S
C4928      C4929   1.406       .  A
C4928      H4935   1.083       .  S
C4929      C4930   1.402       .  A
C4930      H4936   1.085       .  S
C4937      C4938   1.403       .  A
C4937      C4942   1.418       .  A
C4938      C4939   1.402       .  A
C4938      H4947   1.083       .  S
C4939      C4940   1.407       .  A
C4939      H4948   1.083       .  S
C4940      C4946   1.404       .  A
C4940      C4941   1.408       .  A
C4941      C4943   1.409       .  A
C4941      C4942   1.408       .  A
C4942      H4949   1.083       .  S
C4943      C4944   1.406       .  A
C4943      H4950   1.083       .  S
C4944      C4945   1.403       .  A
C4944      H4951   1.083       .  S
C4945      C4946   1.416       .  A
C4946      H4952   1.084       .  S
C4953      C4954   1.402       .  A
C4953      C4958   1.415       .  A
C4954      C4955   1.403       .  A
C4954      H4963   1.083       .  S
C4955      C4956   1.408       .  A
C4955      H4964   1.083       .  S
C4956      C4962   1.404       .  A
C4956      C4957   1.408       .  A
C4957      C4959   1.408       .  A
C4957      C4958   1.404       .  A
C4959      C4960   1.404       .  A
C4960      C4961   1.403       .  A
C4960      H4967   1.083       .  S
C4961      C4962   1.416       .  A
C4962      H4968   1.084       .  S
C4969      C4970   1.404       .  A
C4969      C4974   1.417       .  A
C4970      C4971   1.403       .  A
C4970      H4979   1.083       .  S
C4971      C4972   1.406       .  A
C4971      H4980   1.083       .  S
C4972      C4978   1.406       .  A
C4972      C4973   1.409       .  A
C4973      C4975   1.408       .  A
C4973      C4974   1.408       .  A
C4974      H4981   1.083       .  S
C4975      C4976   1.404       .  A
C4975      H4982   1.083       .  S
C4976      C4977   1.403       .  A
C4976      H4983   1.083       .  S
C4977      C4978   1.413       .  A
C4978      H4984   1.084       .  S
C4985      C4986   1.403       .  A
C4985      C4990   1.412       .  A
C4986      C4987   1.399       .  A
C4986      H4995   1.083       .  S
C4987      C4988   1.406       .  A
C4987      H4996   1.083       .  S
C4988      C4994   1.400       .  A
C4988      C4989   1.409       .  A
C4989      C4991   1.405       .  A
C4989      C4990   1.398       .  A
C4990      H4997   1.083       .  S
C4991      C4992   1.398       .  A
C4991      H4998   1.083       .  S
C4992      C4993   1.401       .  A
C4992      H4999   1.083       .  S
C4993      C4994   1.412       .  A
C4994      H5000   1.084       .  S
C5001      C5002   1.403       .  A
C5001      C5006   1.399       .  A
C5002      C5003   1.393       .  A
C5002      H5011   1.083       .  S
C5003      C5004   1.401       .  A
C5003      H5012   1.084       .  S
C5004      C5010   1.394       .  A
C5004      C5005   1.414       .  A
C5005      C5007   1.398       .  A
C5005      C5006   1.390       .  A
C5006      H5013   1.085       .  S
C5007      C5008   1.388       .  A
C5007      H5014   1.084       .  S
C5008      C5009   1.404       .  A
C5008      H5015   1.083       .  S
C5009      C5010   1.402       .  A
C5010      H5016   1.085       .  S
C5017      C5018   1.403       .  A
C5017      C5022   1.404       .  A
C5018      C5019   1.403       .  A
C5018      H5027   1.083       .  S
C5019      C5020   1.407       .  A
C5019      H5028   1.083       .  S
C5020      C5026   1.409       .  A
C5020      C5021   1.413       .  A
C5021      C5023   1.402       .  A
C5021      C5022   1.404       .  A
C5022      H5029   1.084       .  S
C5023      C5024   1.398       .  A
C5023      H5030   1.083       .  S
C5024      C5025   1.404       .  A
C5024      H5031   1.084       .  S
C5025      C5026   1.410       .  A
C5026      H5032   1.084       .  S
C5033      C5034   1.406       .  A
C5033      C5038   1.412       .  A
C5034      C5035   1.410       .  A
C5034      H5043   1.083       .  S
C5035      C5036   1.410       .  A
C5035      H5044   1.083       .  S
C5036      C5042   1.417       .  A
C5036      C5037   1.412       .  A
C5037      C5039   1.403       .  A
C5037      C5038   1.404       .  A
C5038      H5045   1.084       .  S
C5039      C5040   1.396       .  A
C5039      H5046   1.083       .  S
C5040      C5041   1.402       .  A
C5040      H5047   1.084       .  S
C5041      C5042   1.414       .  A
C5042      H5048   1.083       .  S
C5049      C5050   1.404   1_556  A
C5049      C5054   1.409       .  A
C5050      C5051   1.406       .  A
C5050      H5059   1.083       .  S
C5051      C5052   1.408   1_554  A
C5051      H5060   1.083       .  S
C5052      C5058   1.416       .  A
C5052      C5053   1.413       .  A
C5053      C5055   1.404       .  A
C5053      C5054   1.414       .  A
C5054      H5061   1.084       .  S
C5055      C5056   1.403       .  A
C5055      H5062   1.083       .  S
C5056      C5057   1.407       .  A
C5056      H5063   1.083       .  S
C5057      C5058   1.417       .  A
C5058      H5064   1.083       .  S
C5065      C5066   1.402   1_455  A
C5066      C5067   1.387       .  A
C5066      H5075   1.084       .  S
C5067      C5068   1.397       .  A
C5067      H5076   1.085       .  S
C5068      C5074   1.392       .  A
C5069      C5071   1.405       .  A
C5069      C5070   1.406   1_655  A
C5070      H5077   1.085       .  S
C5071      C5072   1.401       .  A
C5071      H5078   1.084   1_655  S
C5072      H5079   1.083       .  S
C5073      C5074   1.400       .  A
C5074      H5080   1.086       .  S
C5081      C5082   1.405       .  A
C5081      C5086   1.414       .  A
C5082      C5083   1.405       .  A
C5082      H5091   1.083       .  S
C5083      C5084   1.407       .  A
C5083      H5092   1.083       .  S
C5084      C5090   1.412   1_655  A
C5084      C5085   1.412       .  A
C5085      C5087   1.407   1_655  A
C5085      C5086   1.409       .  A
C5086      H5093   1.083       .  S
C5087      C5088   1.403       .  A
C5087      H5094   1.083       .  S
C5088      C5089   1.401       .  A
C5088      H5095   1.083       .  S
C5089      C5090   1.410       .  A
C5090      H5096   1.084   1_455  S
C5097      C5098   1.401       .  A
C5097      C5102   1.408       .  A
C5098      C5099   1.398       .  A
C5098      H5107   1.083       .  S
C5099      C5100   1.405   1_455  A
C5099      H5108   1.083       .  S
C5100      C5106   1.401       .  A
C5100      C5101   1.411       .  A
C5101      C5103   1.406       .  A
C5101      C5102   1.404   1_655  A
C5102      H5109   1.084       .  S
C5103      C5104   1.401       .  A
C5103      H5110   1.083       .  S
C5104      C5105   1.405       .  A
C5104      H5111   1.083       .  S
C5105      C5106   1.411       .  A
C5106      H5112   1.084       .  S
