geometry optimzed in LAMMPS
_audit_creation_date              2020-12-01 
_audit_creation_method            'lammps2cif' 
_symmetry_space_group_name_H-M    'P1' 
_symmetry_Int_Tables_number       1 
_symmetry_cell_setting            triclinic 
loop_ 
_symmetry_equiv_pos_as_xyz 
  x,y,z 
_cell_length_a                    28.05990795 
_cell_length_b                    27.89458686499324 
_cell_length_c                    86.4478503591353 
_cell_angle_alpha                 89.73085233850716 
_cell_angle_beta                  90.40764149901534 
_cell_angle_gamma                 89.81704236386463 
loop_ 
_atom_site_label 
_atom_site_type_symbol 
_atom_site_fract_x 
_atom_site_fract_y 
_atom_site_fract_z 
_atom_site_charge 
O1          O  0.75439529  0.21204392  0.73419154    -0.81600
C2          C  0.89583499  0.12394463  0.69933612     0.97700
O3          O  0.85139297  0.12013622  0.69644380    -0.70800
O4          O  0.79735282  0.09564921  0.71939087    -0.74300
Al5        Al  0.79540769  0.14860357  0.70586661     1.49000
C6          C  0.79357357  0.09239770  0.73380669     0.93000
O7          O  0.87933626  0.17484985  0.74469840    -0.80600
O8          O  0.84873478  0.27903691  0.71405845    -0.74100
Al9        Al  0.81705803  0.19326324  0.73808459     1.90100
O10         O  0.91611419  0.22350940  0.72896429    -0.73200
O11         O  0.85898518  0.22162646  0.68921544    -0.73000
O12         O  0.91257722  0.16045454  0.70615853    -0.78700
O13         O  0.78643833  0.19512774  0.68976404    -0.76900
O14         O  0.83023143  0.18637661  0.71805514    -1.13000
O15         O  0.73440482  0.17005119  0.71371028    -0.72200
C16         C  0.72342741  0.19769685  0.72472632     0.98500
C17         C  0.91585303  0.19812727  0.74103380     0.94900
Al18       Al  0.87970779  0.21855476  0.71023968     1.55600
O19         O  0.79813192  0.12878252  0.74219003    -0.76900
C20         C  0.81977462  0.21475115  0.68253582     0.99000
C21         C  0.83372327  0.29086394  0.72734442     0.93900
O22         O  0.83146205  0.26026586  0.73821831    -0.82200
O23         O  0.25438732  0.77665503  0.73859996    -0.81600
C24         C  0.12262883  0.86066483  0.69988033     0.97700
O25         O  0.16767351  0.86286695  0.69785913    -0.70800
O26         O  0.22734461  0.88375982  0.71993569    -0.74300
Al27       Al  0.22125206  0.82943362  0.70723718     1.49000
C28         C  0.22100364  0.89251351  0.73396196     0.93000
O29         O  0.12693009  0.81499473  0.74480409    -0.80600
O30         O  0.16178199  0.70466853  0.71749923    -0.74100
Al31       Al  0.19045627  0.79559289  0.74015045     1.90100
O32         O  0.09343280  0.76245699  0.72985647    -0.73200
O33         O  0.15306572  0.75814665  0.69113346    -0.73000
O34         O  0.10276868  0.82429254  0.70605324    -0.78700
O35         O  0.22575568  0.78282762  0.69111731    -0.76900
O36         O  0.18202484  0.79713201  0.71968410    -1.13000
O37         O  0.27841323  0.80008597  0.71558400    -0.72200
C38         C  0.28615701  0.77916510  0.72841124     0.98500
C39         C  0.09198075  0.78901839  0.74152218     0.94900
Al40       Al  0.13243538  0.76516032  0.71177221     1.55600
O41         O  0.20642142  0.86055795  0.74292771    -0.76900
C42         C  0.19142675  0.76403993  0.68415548     0.99000
C43         C  0.17415519  0.69584033  0.73146270     0.93900
O44         O  0.17647936  0.72895391  0.74145107    -0.82200
O45         O  0.25392570  0.26853517  0.77126308    -0.81600
C46         C  0.39462705  0.35819510  0.80685681     0.97700
O47         O  0.35031456  0.36738219  0.80782705    -0.70800
O48         O  0.30314536  0.38977199  0.78303064    -0.74300
Al49       Al  0.29467590  0.34082796  0.79775082     1.49000
C50         C  0.29647606  0.38884153  0.76868734     0.93000
O51         O  0.38044795  0.30259444  0.76175852    -0.80600
O52         O  0.33977224  0.20400554  0.79315453    -0.74100
Al53       Al  0.31711970  0.28651854  0.76746484     1.90100
O54         O  0.41350294  0.25558489  0.77933215    -0.73200
O55         O  0.34766131  0.26408052  0.81761915    -0.73000
O56         O  0.40950133  0.31859674  0.80166862    -0.78700
O57         O  0.27942446  0.29995898  0.81459030    -0.76900
O58         O  0.32834402  0.29743059  0.78751556    -1.13000
O59         O  0.23411546  0.32123646  0.78904480    -0.72200
C60         C  0.22301927  0.28823878  0.77964340     0.98500
C61         C  0.41600349  0.27947739  0.76689204     0.94900
Al62       Al  0.37360250  0.26314124  0.79716319     1.55600
O63         O  0.29785313  0.34980710  0.76154887    -0.76900
C64         C  0.30847001  0.27761332  0.82303221     0.99000
C65         C  0.33014971  0.19093331  0.77944387     0.93900
O66         O  0.33230833  0.22044225  0.76837033    -0.82200
O67         O  0.75993741  0.71726052  0.77291950    -0.81600
C68         C  0.61410670  0.62412109  0.80530030     0.97700
O69         O  0.65823753  0.61622822  0.80751487    -0.70800
O70         O  0.70772629  0.59310299  0.78353760    -0.74300
Al71       Al  0.71475396  0.64279895  0.79803323     1.49000
C72         C  0.71966548  0.59337603  0.76958746     0.93000
O73         O  0.63871625  0.67584154  0.75927360    -0.80600
O74         O  0.66575757  0.77879793  0.79062447    -0.74100
Al75       Al  0.69928005  0.69559640  0.76695177     1.90100
O76         O  0.59841114  0.72107090  0.77547642    -0.73200
O77         O  0.65725442  0.72099131  0.81547102    -0.73000
O78         O  0.59972329  0.66232897  0.79892117    -0.78700
O79         O  0.72666634  0.68578944  0.81452603    -0.76900
O80         O  0.68279365  0.68514787  0.78659184    -1.13000
O81         O  0.77689949  0.66173050  0.79034258    -0.72200
C82         C  0.78949423  0.69627673  0.78167711     0.98500
C83         C  0.60045675  0.69629343  0.76323492     0.94900
Al84       Al  0.63437506  0.71832571  0.79449634     1.55600
O85         O  0.72350786  0.63247936  0.76239402    -0.76900
C86         C  0.69616850  0.70950675  0.82182779     0.99000
C87         C  0.67851936  0.79140269  0.77719117     0.93900
O88         O  0.68045487  0.76095213  0.76647132    -0.82200
O89         O  0.76238967  0.18000386  0.01818782    -0.81600
C90         C  0.63241963  0.11840045  0.05864077     0.97700
O91         O  0.67344097  0.10471599  0.05444185    -0.70800
O92         O  0.73872449  0.09712412  0.03306085    -0.74300
Al93       Al  0.72648048  0.14227738  0.04875884     1.49000
C94         C  0.71790654  0.08622273  0.02068389     0.93000
O95         O  0.62879328  0.18744852  0.01176193    -0.80600
O96         O  0.66431129  0.27677447  0.03691783    -0.74100
Al97       Al  0.69467160  0.18294714  0.01706770     1.90100
O98         O  0.59558840  0.20650702  0.03358368    -0.73200
O99         O  0.68696788  0.23931456  0.06355672    -0.73000
O100        O  0.62105778  0.16284494  0.05881310    -0.78700
O101        O  0.72526777  0.17361773  0.06829828    -0.76900
O102        O  0.68856557  0.18159691  0.03770039    -1.13000
O103        O  0.78264910  0.17795355  0.04300885    -0.72200
C104        C  0.79345700  0.18377731  0.02883802     0.98500
C105        C  0.59232986  0.19694327  0.01949767     0.94900
Al106      Al  0.64589243  0.21804925  0.04740432     1.55600
O107        O  0.68906057  0.11514329  0.01446885    -0.76900
C108        C  0.71154047  0.21411834  0.07255719     0.99000
C109        C  0.68714259  0.28380742  0.02450838     0.93900
O110        O  0.70110862  0.24939580  0.01635288    -0.82200
O111        O  0.24410397  0.82085380  0.01806705    -0.81600
C112        C  0.37443560  0.88412788  0.05816630     0.97700
O113        O  0.33413206  0.89866827  0.05321305    -0.70800
O114        O  0.26672969  0.90457307  0.03149418    -0.74300
Al115      Al  0.28035790  0.86143600  0.04815206     1.49000
C116        C  0.28958741  0.91432272  0.01944927     0.93000
O117        O  0.37873501  0.81226534  0.01286366    -0.80600
O118        O  0.33760312  0.72392447  0.03852190    -0.74100
Al119      Al  0.31262721  0.81792104  0.01743559     1.90100
O120        O  0.40993952  0.79066187  0.03497394    -0.73200
O121        O  0.31522285  0.76520116  0.06448414    -0.73000
O122        O  0.38442190  0.83927726  0.05926449    -0.78700
O123        O  0.28204661  0.83378755  0.06843084    -0.76900
O124        O  0.31766716  0.82015982  0.03797992    -1.13000
O125        O  0.22485497  0.82449057  0.04291700    -0.72200
C126        C  0.21415670  0.81483729  0.02891492     0.98500
C127        C  0.41433862  0.80047280  0.02091207     0.94900
Al128      Al  0.35822271  0.78306204  0.04848270     1.55600
O129        O  0.32023315  0.88532550  0.01461312    -0.76900
C130        C  0.29302589  0.79283242  0.07321020     0.99000
C131        C  0.31622192  0.71736472  0.02570757     0.93900
O132        O  0.30525545  0.75197477  0.01704897    -0.82200
O133        O  0.75135147  0.71041821  0.98569371    -0.81600
C134        C  0.87692037  0.62163579  0.94544085     0.97700
O135        O  0.83205469  0.61417447  0.94541451    -0.70800
O136        O  0.78587951  0.59580749  0.97080478    -0.74300
Al137      Al  0.77966497  0.64532340  0.95613887     1.49000
C138        C  0.79238957  0.59419307  0.98515579     0.93000
O139        O  0.88288992  0.68274805  0.98975803    -0.80600
O140        O  0.83184451  0.77824245  0.95909572    -0.74100
Al141      Al  0.81664474  0.69579411  0.98616218     1.90100
O142        O  0.90780167  0.72752085  0.97075238    -0.73200
O143        O  0.83211584  0.71785096  0.93500756    -0.73000
O144        O  0.89441011  0.66114311  0.94983769    -0.78700
O145        O  0.76320103  0.68624277  0.93915420    -0.76900
O146        O  0.81911945  0.68591394  0.96568994    -1.13000
O147        O  0.72301664  0.67039822  0.96579073    -0.72200
C148        C  0.71680159  0.69738249  0.97735962     0.98500
C149        C  0.91557590  0.70632511  0.98338092     0.94900
Al150      Al  0.86233768  0.71828285  0.95465629     1.55600
O151        O  0.80424161  0.63121787  0.99242519    -0.76900
C152        C  0.79130504  0.70737341  0.93028470     0.99000
C153        C  0.82523653  0.79214382  0.97286768     0.93900
O154        O  0.82718387  0.76297756  0.98415976    -0.82200
O155        O  0.25588595  0.29015903  0.98558999    -0.81600
C156        C  0.12585095  0.38192430  0.94661439     0.97700
O157        O  0.17075206  0.38884424  0.94617284    -0.70800
O158        O  0.21829672  0.40677234  0.97142708    -0.74300
Al159      Al  0.22411084  0.35770391  0.95671447     1.49000
C160        C  0.21384531  0.40727531  0.98584997     0.93000
O161        O  0.12583475  0.31872334  0.99120823    -0.80600
O162        O  0.17160634  0.22503002  0.95971582    -0.74100
Al163      Al  0.19122631  0.30530113  0.98686359     1.90100
O164        O  0.09818185  0.27501012  0.97239620    -0.73200
O165        O  0.16917686  0.28676403  0.93577428    -0.73000
O166        O  0.10851775  0.34275599  0.95139751    -0.78700
O167        O  0.23908277  0.31677817  0.93981150    -0.76900
O168        O  0.18586982  0.31660190  0.96648112    -1.13000
O169        O  0.28205061  0.33289524  0.96599736    -0.72200
C170        C  0.28945726  0.30420213  0.97715938     0.98500
C171        C  0.09283030  0.29401953  0.98544815     0.94900
Al172      Al  0.14106738  0.28525570  0.95575480     1.55600
O173        O  0.20473233  0.36937757  0.99312979    -0.76900
C174        C  0.21005837  0.29639031  0.93099526     0.99000
C175        C  0.17906793  0.20988034  0.97337410     0.93900
O176        O  0.17986962  0.23802033  0.98483553    -0.82200
O177        O  0.76200622  0.27874234  0.51785497    -0.81600
C178        C  0.89957754  0.36653832  0.55415401     0.97700
O179        O  0.85480620  0.36998421  0.55637754    -0.70800
O180        O  0.79378159  0.39108324  0.53462842    -0.74300
Al181      Al  0.80017166  0.33723504  0.54771755     1.49000
C182        C  0.79392305  0.39753167  0.52028405     0.93000
O183        O  0.88635344  0.32051338  0.50867843    -0.80600
O184        O  0.85965037  0.21103587  0.53737017    -0.74100
Al185      Al  0.82461737  0.29950676  0.51468911     1.90100
O186        O  0.92510081  0.27157349  0.52398508    -0.73200
O187        O  0.86908344  0.26350101  0.56321003    -0.73000
O188        O  0.91809613  0.33001160  0.54783343    -0.78700
O189        O  0.79722907  0.29127240  0.56418094    -0.76900
O190        O  0.83713782  0.30328565  0.53500212    -1.13000
O191        O  0.74136650  0.30926558  0.54029916    -0.72200
C192        C  0.73145027  0.28545915  0.52823995     0.98500
C193        C  0.92411089  0.29900503  0.51241475     0.94900
Al194      Al  0.88816536  0.27166548  0.54244488     1.55600
O195        O  0.80450950  0.36384760  0.51139645    -0.76900
C196        C  0.83162036  0.27033512  0.57061584     0.99000
C197        C  0.84448028  0.20105721  0.52388501     0.93900
O198        O  0.84117805  0.23320609  0.51352235    -0.82200
O199        O  0.76223892  0.78189249  0.48435368    -0.81600
C200        C  0.62850109  0.86748036  0.44518681     0.97700
O201        O  0.67332427  0.87279728  0.44361371    -0.70800
O202        O  0.72239731  0.89769317  0.46769715    -0.74300
Al203      Al  0.72739816  0.84452240  0.45453737     1.49000
C204        C  0.72231074  0.90134826  0.48212909     0.93000
O205        O  0.63429708  0.81752377  0.49083500    -0.80600
O206        O  0.67521694  0.71340598  0.46186906    -0.74100
Al207      Al  0.69850792  0.80018689  0.48626551     1.90100
O208        O  0.60288473  0.76826005  0.47404131    -0.73200
O209        O  0.66941673  0.76946214  0.43631451    -0.73000
O210        O  0.61124633  0.82988983  0.45121041    -0.78700
O211        O  0.74047370  0.79839553  0.43897301    -0.76900
O212        O  0.69033263  0.80645975  0.46582232    -1.13000
O213        O  0.78620525  0.82254788  0.46399124    -0.72200
C214        C  0.79476551  0.79472569  0.47531192     0.98500
C215        C  0.59912912  0.79409974  0.48586228     0.94900
Al216      Al  0.64393822  0.77295175  0.45663601     1.55600
O217        O  0.71578011  0.86512089  0.49054433    -0.76900
C218        C  0.70985280  0.77746119  0.43088278     0.99000
C219        C  0.68561809  0.70203761  0.47574577     0.93900
O220        O  0.68463602  0.73310859  0.48640294    -0.82200
O221        O  0.26003948  0.21627467  0.48447089    -0.81600
C222        C  0.39126268  0.11997524  0.44755384     0.97700
O223        O  0.34632306  0.11420347  0.44694695    -0.70800
O224        O  0.29442326  0.09623101  0.47103087    -0.74300
Al225      Al  0.29332527  0.14658521  0.45646336     1.49000
C226        C  0.29488745  0.09536327  0.48551765     0.93000
O227        O  0.38741437  0.17714743  0.49260853    -0.80600
O228        O  0.34973996  0.27884485  0.46183137    -0.74100
Al229      Al  0.32370949  0.19578863  0.48732051     1.90100
O230        O  0.42077966  0.22125146  0.47471182    -0.73200
O231        O  0.35188149  0.22050102  0.43707935    -0.73000
O232        O  0.40962944  0.15875174  0.45230673    -0.78700
O233        O  0.28224999  0.18832259  0.43946015    -0.76900
O234        O  0.33165164  0.18589551  0.46702179    -1.13000
O235        O  0.23582226  0.17328486  0.46461475    -0.72200
C236        C  0.22775421  0.20356306  0.47513314     0.98500
C237        C  0.42363679  0.19761333  0.48714128     0.94900
Al238      Al  0.37865224  0.21722963  0.45733199     1.55600
O239        O  0.30450539  0.13256502  0.49299706    -0.76900
C240        C  0.31196020  0.21043961  0.43146423     0.99000
C241        C  0.33970363  0.29178155  0.47549740     0.93900
O242        O  0.34026245  0.26165571  0.48646321    -0.82200
O243        O  0.26204583  0.71252295  0.51827866    -0.81600
C244        C  0.13121558  0.62275448  0.55649546     0.97700
O245        O  0.17616987  0.61794099  0.55796949    -0.70800
O246        O  0.22883910  0.59683157  0.53446303    -0.74300
Al247      Al  0.22928398  0.64935951  0.54806140     1.49000
C248        C  0.22782787  0.59285609  0.52003602     0.93000
O249        O  0.13553113  0.67277520  0.51108917    -0.80600
O250        O  0.17081821  0.77954306  0.53984364    -0.74100
Al251      Al  0.19882456  0.69249079  0.51600561     1.90100
O252        O  0.10142680  0.72049492  0.52767728    -0.73200
O253        O  0.16789147  0.72413447  0.56551000    -0.73000
O254        O  0.11271814  0.66053679  0.55084550    -0.78700
O255        O  0.23884661  0.69379342  0.56467166    -0.76900
O256        O  0.19083584  0.68639538  0.53648244    -1.13000
O257        O  0.28703424  0.67502842  0.53935303    -0.72200
C258        C  0.29487179  0.70145247  0.52767311     0.98500
C259        C  0.09919698  0.69462291  0.51582346     0.94900
Al260      Al  0.14281527  0.71850209  0.54524265     1.55600
O261        O  0.21837963  0.62848534  0.51166266    -0.76900
C262        C  0.20692130  0.71523601  0.57201029     0.99000
C263        C  0.17953710  0.79065582  0.52587435     0.93900
O264        O  0.18200100  0.75878433  0.51554226    -0.82200
O265        O  0.76142799  0.79950919  0.26798798    -0.81600
C266        C  0.89151563  0.87785399  0.30864376     0.97700
O267        O  0.84720881  0.88666859  0.30754368    -0.70800
O268        O  0.79600885  0.90211698  0.28300019    -0.74300
Al269      Al  0.79436886  0.85406141  0.29830557     1.49000
C270        C  0.80997666  0.90547050  0.26931715     0.93000
O271        O  0.89399421  0.80681180  0.26301940    -0.80600
O272        O  0.84822915  0.71830183  0.29350217    -0.74100
Al273      Al  0.82792091  0.80422239  0.26770531     1.90100
O274        O  0.92290908  0.77340034  0.28374687    -0.73200
O275        O  0.84594616  0.77386342  0.31834817    -0.73000
O276        O  0.90844201  0.83665350  0.30555594    -0.78700
O277        O  0.78194722  0.81649330  0.31614144    -0.76900
O278        O  0.83305260  0.81261680  0.28840464    -1.13000
O279        O  0.73716260  0.82697549  0.29031241    -0.72200
C280        C  0.72889392  0.80646790  0.27763745     0.98500
C281        C  0.92816822  0.78803037  0.27020616     0.94900
Al282      Al  0.87696324  0.77885776  0.29921829     1.55600
O283        O  0.82592354  0.86981173  0.26227033    -0.76900
C284        C  0.80761088  0.78840944  0.32380810     0.99000
C285        C  0.83116154  0.70678777  0.28037370     0.93900
O286        O  0.82803613  0.73695553  0.26947366    -0.82200
O287        O  0.25906855  0.68108683  0.23684922    -0.81600
C288        C  0.39171871  0.62431952  0.19610770     0.97700
O289        O  0.35298800  0.60760575  0.20133664    -0.70800
O290        O  0.28661331  0.59830538  0.22289502    -0.74300
Al291      Al  0.29788537  0.64319303  0.20667913     1.49000
C292        C  0.30791079  0.58956255  0.23543797     0.93000
O293        O  0.39212093  0.69384965  0.24318042    -0.80600
O294        O  0.35697358  0.78045839  0.21867387    -0.74100
Al295      Al  0.32690738  0.68646753  0.23802091     1.90100
O296        O  0.42594499  0.70921065  0.22104581    -0.73200
O297        O  0.33020591  0.74354234  0.19216226    -0.73000
O298        O  0.39920869  0.66940875  0.19546825    -0.78700
O299        O  0.29843987  0.67477164  0.18698763    -0.76900
O300        O  0.33347905  0.68462733  0.21750135    -1.13000
O301        O  0.24063591  0.67717607  0.21191971    -0.72200
C302        C  0.22910187  0.68567005  0.22585219     0.98500
C303        C  0.42873961  0.70122413  0.23530117     0.94900
Al304      Al  0.37444970  0.72243053  0.20764370     1.55600
O305        O  0.33672761  0.61946198  0.24085116    -0.76900
C306        C  0.30788901  0.71694498  0.18299893     0.99000
C307        C  0.33257881  0.78707895  0.23076802     0.93900
O308        O  0.31704668  0.75232131  0.23847650    -0.82200
O309        O  0.26965298  0.21785615  0.26999939    -0.81600
C310        C  0.13366184  0.12565485  0.30634159     0.97700
O311        O  0.17850121  0.11890398  0.30773167    -0.70800
O312        O  0.22735379  0.09911177  0.28304665    -0.74300
Al313      Al  0.23324608  0.14824916  0.29769773     1.49000
C314        C  0.22903071  0.09970517  0.26855011     0.93000
O315        O  0.14039808  0.18806344  0.26164054    -0.80600
O316        O  0.18289774  0.28171598  0.29406469    -0.74100
Al317      Al  0.20548874  0.20193396  0.26721607     1.90100
O318        O  0.11108095  0.23329490  0.27979886    -0.73200
O319        O  0.17654603  0.21907253  0.31775857    -0.73000
O320        O  0.11696172  0.16451061  0.30087385    -0.78700
O321        O  0.24737291  0.18997833  0.31449000    -0.76900
O322        O  0.19695483  0.19009109  0.28735530    -1.13000
O323        O  0.29268452  0.17035704  0.28901778    -0.72200
C324        C  0.30208246  0.20053335  0.27848289     0.98500
C325        C  0.10729597  0.21435714  0.26665869     0.94900
Al326      Al  0.15101500  0.22182489  0.29728602     1.55600
O327        O  0.22223087  0.13810058  0.26115820    -0.76900
C328        C  0.21725916  0.20972633  0.32300230     0.99000
C329        C  0.19140966  0.29705405  0.28052537     0.93900
O330        O  0.19277342  0.26905940  0.26903769    -0.82200
O331        O  0.77821691  0.32367285  0.23596021    -0.81600
C332        C  0.63483253  0.37760324  0.19683697     0.97700
O333        O  0.67279379  0.39518945  0.20231959    -0.70800
O334        O  0.73774346  0.40547142  0.22402863    -0.74300
Al335      Al  0.73010605  0.36230981  0.20689901     1.49000
C336        C  0.71737206  0.40863922  0.23697545     0.93000
O337        O  0.64814268  0.29100259  0.24369939    -0.80600
O338        O  0.67739414  0.22081072  0.21777479    -0.74100
Al339      Al  0.71170846  0.30888277  0.23758261     1.90100
O340        O  0.60872386  0.29151870  0.22182363    -0.73200
O341        O  0.69967074  0.26192389  0.19165992    -0.73000
O342        O  0.62913820  0.33248034  0.19597824    -0.78700
O343        O  0.72907009  0.33238492  0.18682020    -0.76900
O344        O  0.69932707  0.31683912  0.21739062    -1.13000
O345        O  0.79050717  0.33211637  0.21092519    -0.72200
C346        C  0.80603994  0.32431516  0.22450226     0.98500
C347        C  0.60930323  0.28968687  0.23629945     0.94900
Al348      Al  0.65737103  0.27976801  0.20764162     1.55600
O349        O  0.69593173  0.37317712  0.24268424    -0.76900
C350        C  0.71950030  0.29043100  0.18250171     0.99000
C351        C  0.71000967  0.21204454  0.22760433     0.93900
O352        O  0.72963217  0.24524487  0.23503163    -0.82200
C353        C  0.93114847  0.31180027  0.24100119     0.16100
C354        C  0.97040583  0.31360585  0.25096224    -0.32900
C355        C  0.00310756  0.27580060  0.25045515     0.20500
C356        C  0.99817596  0.23807643  0.24019901     0.02700
C357        C  0.95898805  0.23664237  0.22994190    -0.22700
C358        C  0.92537060  0.27424584  0.23068628     0.11900
S359        S  0.88484639  0.35128746  0.24151855    -0.06300
C360        C  0.85696864  0.31737136  0.22763980    -0.09800
C361        C  0.88264653  0.27757345  0.22280971    -0.26400
S362        S  0.04183971  0.19491057  0.24211956    -0.03600
C363        C  0.06550721  0.22786489  0.25715291    -0.17000
C364        C  0.04130248  0.27013936  0.26008507    -0.15000
H365        H  0.97426990  0.34243640  0.25928491     0.20300
H366        H  0.95402695  0.20673711  0.22211548     0.16400
H367        H  0.86921632  0.25071879  0.21488473     0.18900
H368        H  0.05097391  0.29554831  0.26904854     0.12200
C369        C  0.48070453  0.28112819  0.24987931     0.16100
C370        C  0.43104019  0.28178387  0.25055071    -0.32900
C371        C  0.40933884  0.25393954  0.26196110     0.20500
C372        C  0.43561166  0.22674098  0.27244000     0.02700
C373        C  0.48575993  0.22684689  0.27197758    -0.22700
C374        C  0.50767561  0.25464702  0.26039922     0.11900
S375        S  0.51264764  0.30902885  0.23586082    -0.06300
C376        C  0.56337669  0.28543353  0.24420677    -0.09800
C377        C  0.55565908  0.25752463  0.25729954    -0.26400
S378        S  0.40127693  0.19293964  0.28469485    -0.03600
C379        C  0.35143276  0.21575395  0.27540488    -0.17000
C380        C  0.36145836  0.24816780  0.26368967    -0.15000
H381        H  0.41007969  0.30196784  0.24218962     0.20300
H382        H  0.50664901  0.20522552  0.27996590     0.16400
H383        H  0.58323789  0.23830935  0.26361565     0.18900
H384        H  0.33496034  0.26558378  0.25640176     0.12200
C385        C  0.50454102  0.54949403  0.18874411     0.16100
C386        C  0.55166032  0.53249720  0.18860908    -0.32900
C387        C  0.55888849  0.48267312  0.18908254     0.20500
C388        C  0.52092147  0.45099261  0.18912569     0.02700
C389        C  0.47374000  0.46799725  0.18903846    -0.22700
C390        C  0.46651881  0.51790508  0.18911913     0.11900
S391        S  0.48853447  0.60855275  0.19005014    -0.06300
C392        C  0.42996902  0.59067127  0.19155411    -0.09800
C393        C  0.42366100  0.54132454  0.19071211    -0.26400
S394        S  0.53731437  0.39202136  0.19089656    -0.03600
C395        C  0.59585040  0.41035701  0.19210727    -0.17000
C396        C  0.60188703  0.45958295  0.19075073    -0.15000
H397        H  0.58144916  0.55709565  0.18889217     0.20300
H398        H  0.44399327  0.44341363  0.18964274     0.16400
H399        H  0.38974774  0.52336246  0.19201894     0.18900
H400        H  0.63581378  0.47776909  0.19177317     0.12200
C401        C  0.20677990  0.41827746  0.26208251     0.16100
C402        C  0.20780621  0.45422473  0.25085475    -0.32900
C403        C  0.24621936  0.48578641  0.25111930     0.20500
C404        C  0.28168227  0.48303181  0.26233864     0.02700
C405        C  0.28048051  0.44702508  0.27376193    -0.22700
C406        C  0.24236916  0.41438314  0.27326109     0.11900
S407        S  0.16635260  0.37320035  0.26214854    -0.06300
C408        C  0.19774047  0.34793362  0.27724845    -0.09800
C409        C  0.23704089  0.37386852  0.28218695    -0.26400
S410        S  0.32495078  0.52588544  0.26043708    -0.03600
C411        C  0.29499386  0.54641041  0.24419836    -0.17000
C412        C  0.25386259  0.52153474  0.24069118    -0.15000
H413        H  0.18058585  0.45642099  0.24188748     0.20300
H414        H  0.30865891  0.44374522  0.28236124     0.16400
H415        H  0.26265614  0.36148705  0.29077134     0.18900
H416        H  0.22994424  0.52992997  0.23113083     0.12200
C417        C  0.29449591  0.89936781  0.25263400     0.16100
C418        C  0.27604280  0.93037486  0.26371688    -0.32900
C419        C  0.26614106  0.97744018  0.25918292     0.20500
C420        C  0.27483883  0.99360504  0.24428788     0.02700
C421        C  0.29415647  0.96246865  0.23313533    -0.22700
C422        C  0.30356396  0.91470484  0.23765033     0.11900
S423        S  0.30517094  0.84039547  0.25594996    -0.06300
C424        C  0.32186636  0.83513841  0.23689816    -0.09800
C425        C  0.32002579  0.87775538  0.22849547    -0.26400
S426        S  0.26015043  0.05279878  0.24143522    -0.03600
C427        C  0.24217368  0.05508341  0.26050507    -0.17000
C428        C  0.24754210  0.01219601  0.26844260    -0.15000
H429        H  0.26882243  0.91799589  0.27538219     0.20300
H430        H  0.30086949  0.97470958  0.22143598     0.16400
H431        H  0.32818796  0.88103975  0.21630870     0.18900
H432        H  0.23928362  0.00692969  0.28056945     0.12200
C433        C  0.96293842  0.99427874  0.31384230     0.16100
C434        C  0.97895703  0.04186237  0.31285480    -0.32900
C435        C  0.02840360  0.04974943  0.31305996     0.20500
C436        C  0.06042747  0.01209583  0.31471338     0.02700
C437        C  0.04435963  0.96460460  0.31591834    -0.22700
C438        C  0.99500256  0.95653876  0.31517793     0.11900
S439        S  0.90484743  0.97679850  0.31201330    -0.06300
C440        C  0.92393669  0.91787040  0.31255846    -0.09800
C441        C  0.97285170  0.91264704  0.31449077    -0.26400
S442        S  0.11897261  0.02873946  0.31373601    -0.03600
C443        C  0.10029232  0.08694081  0.31064373    -0.17000
C444        C  0.05105721  0.09277962  0.31074176    -0.15000
H445        H  0.95403473  0.07125854  0.31128430     0.20300
H446        H  0.06935917  0.93503387  0.31669113     0.16400
H447        H  0.99149636  0.87860697  0.31454535     0.18900
H448        H  0.03274019  0.12643208  0.30858655     0.12200
C449        C  0.09926166  0.72610474  0.23265560     0.16100
C450        C  0.05048239  0.73814521  0.23210288    -0.32900
C451        C  0.02973862  0.75634280  0.24568759     0.20500
C452        C  0.05651572  0.76212350  0.25910280     0.02700
C453        C  0.10481356  0.75039729  0.25961456    -0.22700
C454        C  0.12525323  0.73221842  0.24618377     0.11900
S455        S  0.13214627  0.70313482  0.21768783    -0.06300
C456        C  0.18081664  0.70178514  0.23000820    -0.09800
C457        C  0.17151474  0.71834589  0.24475691    -0.26400
S458        S  0.02536981  0.78136959  0.27466756    -0.03600
C459        C  0.97518475  0.78184537  0.26316652    -0.17000
C460        C  0.98261776  0.76825008  0.24792267    -0.15000
H461        H  0.02960956  0.73306759  0.22166707     0.20300
H462        H  0.12547693  0.75452102  0.27014527     0.16400
H463        H  0.19754294  0.72050729  0.25403962     0.18900
H464        H  0.95475434  0.76454593  0.23928691     0.12200
C465        C  0.59986943  0.76469410  0.27182986     0.16100
C466        C  0.55063199  0.75625850  0.27224792    -0.32900
C467        C  0.53030000  0.73108857  0.25981121     0.20500
C468        C  0.55788561  0.71435940  0.24769977     0.02700
C469        C  0.60701755  0.72152050  0.24753113    -0.22700
C470        C  0.62700184  0.74754125  0.25970007     0.11900
S471        S  0.63146476  0.79764421  0.28503984    -0.06300
C472        C  0.68121460  0.78844316  0.27384835    -0.09800
C473        C  0.67343498  0.76087211  0.26082046    -0.26400
S474        S  0.52652208  0.69031225  0.23273751    -0.03600
C475        C  0.47551266  0.70316367  0.24278603    -0.17000
C476        C  0.48270242  0.72378157  0.25716999    -0.15000
H477        H  0.52889520  0.77038682  0.28148062     0.20300
H478        H  0.62844429  0.70936755  0.23793572     0.16400
H479        H  0.70041334  0.75131938  0.25246918     0.18900
H480        H  0.45453438  0.73642543  0.26463830     0.12200
C481        C  0.74118973  0.07888213  0.23383770     0.16100
C482        C  0.74431577  0.02863556  0.23407367    -0.32900
C483        C  0.77343887  0.00733858  0.24551103     0.20500
C484        C  0.79833732  0.03484872  0.25617311     0.02700
C485        C  0.79617831  0.08476931  0.25567152    -0.22700
C486        C  0.76699773  0.10588035  0.24437077     0.11900
S487        S  0.70544017  0.11232167  0.22171225    -0.06300
C488        C  0.72587535  0.16280952  0.23104293    -0.09800
C489        C  0.75869433  0.15369028  0.24273888    -0.26400
S490        S  0.82722645  0.00294900  0.27023899    -0.03600
C491        C  0.80626262  0.95188515  0.26158445    -0.17000
C492        C  0.77858877  0.95926674  0.24844705    -0.15000
H493        H  0.72384286  0.00707192  0.22603039     0.20300
H494        H  0.81514226  0.10630146  0.26411004     0.16400
H495        H  0.77500279  0.18078031  0.24999242     0.18900
H496        H  0.76058194  0.93116721  0.24207994     0.12200
C497        C  0.73267259  0.53636987  0.25131202     0.16100
C498        C  0.73866824  0.58601900  0.25177783    -0.32900
C499        C  0.76797213  0.60472749  0.26342288     0.20500
C500        C  0.78963486  0.57580144  0.27449971     0.02700
C501        C  0.78276067  0.52579418  0.27424681    -0.22700
C502        C  0.75406895  0.50678176  0.26230123     0.11900
S503        S  0.70399313  0.50700431  0.23672732    -0.06300
C504        C  0.72069772  0.45402544  0.24540262    -0.09800
C505        C  0.74666313  0.45910381  0.25904634    -0.26400
S506        S  0.82567142  0.60665622  0.28721162    -0.03600
C507        C  0.81185730  0.65852366  0.27715155    -0.17000
C508        C  0.78042010  0.65167730  0.26490096    -0.15000
H509        H  0.72281674  0.60902476  0.24299250     0.20300
H510        H  0.80037726  0.50262216  0.28261188     0.16400
H511        H  0.76240697  0.42961021  0.26550750     0.18900
H512        H  0.76762988  0.67984927  0.25723139     0.12200
C513        C  0.30316135  0.22601729  0.38746325     0.16100
C514        C  0.31202961  0.22516579  0.37150729    -0.32900
C515        C  0.27259781  0.22414796  0.36143349     0.20500
C516        C  0.22637629  0.22532679  0.36700163     0.02700
C517        C  0.21750353  0.22582500  0.38295483    -0.22700
C518        C  0.25693494  0.22547865  0.39303145     0.11900
S519        S  0.34612169  0.22441711  0.40155261    -0.06300
C520        C  0.30143587  0.22130722  0.41509284    -0.09800
C521        C  0.25570355  0.22240404  0.40888735    -0.26400
S522        S  0.18341090  0.22321944  0.35294734    -0.03600
C523        C  0.22807512  0.21913960  0.33942011    -0.17000
C524        C  0.27382072  0.22018461  0.34559867    -0.15000
H525        H  0.34810685  0.22406749  0.36714925     0.20300
H526        H  0.18142454  0.22524151  0.38732292     0.16400
H527        H  0.22336524  0.21941952  0.41558656     0.18900
H528        H  0.30615026  0.21706457  0.33890204     0.12200
C529        C  0.29773661  0.42267128  0.48216486     0.16100
C530        C  0.28210694  0.47082552  0.48158060    -0.32900
C531        C  0.26611889  0.49177741  0.49548584     0.20500
C532        C  0.26559547  0.46569944  0.50918360     0.02700
C533        C  0.28108861  0.41824908  0.50973756    -0.22700
C534        C  0.29723658  0.39772807  0.49604382     0.11900
S535        S  0.31793653  0.38889368  0.46685723    -0.06300
C536        C  0.32575700  0.34138082  0.47955914    -0.09800
C537        C  0.31333888  0.35197410  0.49465032    -0.26400
S538        S  0.24673932  0.49646014  0.52493023    -0.03600
C539        C  0.23969313  0.54595490  0.51322276    -0.17000
C540        C  0.25088104  0.53829852  0.49773623    -0.15000
H541        H  0.28256045  0.49102802  0.47084771     0.20300
H542        H  0.28091082  0.39811699  0.52049344     0.16400
H543        H  0.31485778  0.32682242  0.50424125     0.18900
H544        H  0.24961888  0.56561632  0.48879347     0.12200
C545        C  0.20533135  0.90696092  0.50436417     0.16100
C546        C  0.21493456  0.93978950  0.49255137    -0.32900
C547        C  0.24231599  0.97991056  0.49625484     0.20500
C548        C  0.25882341  0.98785154  0.51116859     0.02700
C549        C  0.24930854  0.95462131  0.52309103    -0.22700
C550        C  0.22229953  0.91372491  0.51930668     0.11900
S551        S  0.17579994  0.85471829  0.50157126    -0.06300
C552        C  0.18696420  0.84040049  0.52065431    -0.09800
C553        C  0.21143734  0.87546151  0.52885362    -0.26400
S554        S  0.28997042  0.04037789  0.51312536    -0.03600
C555        C  0.28105400  0.05081652  0.49359717    -0.17000
C556        C  0.25535682  0.01532035  0.48616804    -0.15000
H557        H  0.20219838  0.93385766  0.48085049     0.20300
H558        H  0.26274745  0.96013647  0.53472211     0.16400
H559        H  0.22344616  0.87171488  0.54073261     0.18900
H560        H  0.24530103  0.01614498  0.47403938     0.12200
C561        C  0.79467530  0.76086973  0.36697850     0.16100
C562        C  0.80302737  0.75654334  0.38293316    -0.32900
C563        C  0.76361474  0.75930884  0.39276623     0.20500
C564        C  0.71765438  0.76404676  0.38693298     0.02700
C565        C  0.70927965  0.76842696  0.37095456    -0.22700
C566        C  0.74895611  0.76775906  0.36115604     0.11900
S567        S  0.83824248  0.76248864  0.35334442    -0.06300
C568        C  0.79480250  0.77474635  0.33970440    -0.09800
C569        C  0.74881084  0.77617058  0.34547289    -0.26400
S570        S  0.67488157  0.76852839  0.40079999    -0.03600
C571        C  0.71954933  0.76617682  0.41458563    -0.17000
C572        C  0.76498453  0.76089110  0.40863748    -0.15000
H573        H  0.83889901  0.75315960  0.38751406     0.20300
H574        H  0.67361940  0.77410732  0.36642122     0.16400
H575        H  0.71727463  0.78443700  0.33866048     0.18900
H576        H  0.79737771  0.76032526  0.41552019     0.12200
C577        C  0.55685904  0.98301086  0.43798401     0.16100
C578        C  0.54147720  0.03097009  0.43757517    -0.32900
C579        C  0.49255355  0.04001305  0.43943974     0.20500
C580        C  0.46020676  0.00289025  0.44110041     0.02700
C581        C  0.47550838  0.95501064  0.44135868    -0.22700
C582        C  0.52451579  0.94607211  0.43999183     0.11900
S583        S  0.61512679  0.96469693  0.43771484    -0.06300
C584        C  0.59574269  0.90685126  0.44081093    -0.09800
C585        C  0.54655759  0.90238658  0.44155971    -0.26400
S586        S  0.40283929  0.02116362  0.44401032    -0.03600
C587        C  0.42263308  0.07954855  0.44342935    -0.17000
C588        C  0.47118863  0.08416547  0.44081942    -0.15000
H589        H  0.56676162  0.06003381  0.43653077     0.20300
H590        H  0.45051189  0.92607080  0.44320467     0.16400
H591        H  0.52799062  0.86926548  0.44403127     0.18900
H592        H  0.49010430  0.11793816  0.44053418     0.12200
C593        C  0.42593972  0.73814757  0.52228447     0.16100
C594        C  0.47573101  0.74342893  0.52267371    -0.32900
C595        C  0.49714565  0.76801985  0.51030090     0.20500
C596        C  0.47008371  0.78673333  0.49819089     0.02700
C597        C  0.42052546  0.78231127  0.49797269    -0.22700
C598        C  0.39933528  0.75744318  0.51019199     0.11900
S599        S  0.39286455  0.70658849  0.53545562    -0.06300
C600        C  0.34301975  0.71960609  0.52441079    -0.09800
C601        C  0.35203134  0.74723361  0.51139889    -0.26400
S602        S  0.50236958  0.81024534  0.48339665    -0.03600
C603        C  0.55304606  0.79531107  0.49361433    -0.17000
C604        C  0.54513761  0.77337954  0.50778885    -0.16600
H605        H  0.49694463  0.72769722  0.53191077     0.20300
H606        H  0.39949039  0.79607995  0.48836781     0.16400
H607        H  0.32538868  0.75830959  0.50296709     0.18900
H608        H  0.57290274  0.75878000  0.51521323     0.12200
C609        C  0.92597214  0.75638214  0.48008380     0.16100
C610        C  0.97577518  0.75162169  0.47979367    -0.32900
C611        C  0.99743608  0.72303833  0.49130537     0.20500
C612        C  0.97062779  0.69959119  0.50242876     0.02700
C613        C  0.92093310  0.70330928  0.50246215    -0.22700
C614        C  0.89949665  0.73261519  0.49119396     0.11900
S615        S  0.89284497  0.79275400  0.46808242    -0.06300
C616        C  0.84311386  0.77606316  0.47834676    -0.09800
C617        C  0.85214771  0.74352160  0.49019751    -0.26400
S618        S  0.00338550  0.67223944  0.51663870    -0.03600
C619        C  0.05379084  0.69232749  0.50750735    -0.17000
C620        C  0.04543815  0.71842226  0.49408254    -0.15000
H621        H  0.99685680  0.77102973  0.47140742     0.20300
H622        H  0.90001880  0.68604439  0.51137054     0.16400
H623        H  0.82546537  0.72928185  0.49795392     0.18900
H624        H  0.07278203  0.73673156  0.48755948     0.12200
C625        C  0.96658923  0.48411884  0.56070928     0.16100
C626        C  0.98072422  0.53225447  0.56075451    -0.32900
C627        C  0.02970588  0.54191078  0.56150373     0.20500
C628        C  0.06318672  0.50535529  0.56257979     0.02700
C629        C  0.04903598  0.45716435  0.56258261    -0.22700
C630        C  0.00008224  0.44748212  0.56139490     0.11900
S631        S  0.90913171  0.46505228  0.55864874    -0.06300
C632        C  0.93047744  0.40712419  0.55825243    -0.09800
C633        C  0.97955714  0.40316339  0.55991111    -0.26400
S634        S  0.12097022  0.52458281  0.56245935    -0.03600
C635        C  0.09980784  0.58238896  0.56049007    -0.17000
C636        C  0.05048723  0.58613960  0.56030997    -0.15000
H637        H  0.95475258  0.56091935  0.55968795     0.20300
H638        H  0.07513468  0.42847109  0.56291151     0.16400
H639        H  0.99928762  0.36975606  0.55948742     0.18900
H640        H  0.03085952  0.61927281  0.55859004     0.12200
C641        C  0.05028215  0.30398369  0.49736052     0.16100
C642        C  0.10014963  0.30363883  0.49721634    -0.32900
C643        C  0.12265730  0.27209643  0.48702109     0.20500
C644        C  0.09686878  0.24384713  0.47682015     0.02700
C645        C  0.04690436  0.24573902  0.47649261    -0.22700
C646        C  0.02426670  0.27564099  0.48722727     0.11900
S647        S  0.01698987  0.33145621  0.51119022    -0.06300
C648        C  0.96757577  0.30428087  0.50335644    -0.09800
C649        C  0.97650940  0.27619765  0.49052338    -0.26400
S650        S  0.13083762  0.20415628  0.46661415    -0.03600
C651        C  0.17991067  0.22475335  0.47663826    -0.17000
C652        C  0.17029598  0.26166372  0.48684072    -0.15000
H653        H  0.12049107  0.32422059  0.50554753     0.20300
H654        H  0.02654266  0.22230158  0.46900275     0.16400
H655        H  0.95026361  0.25359839  0.48493208     0.18900
H656        H  0.19653462  0.27851507  0.49427666     0.12200
C657        C  0.60038277  0.24555004  0.52406066     0.16100
C658        C  0.55052643  0.24045407  0.52459080    -0.32900
C659        C  0.52776551  0.21815178  0.51196285     0.20500
C660        C  0.55376918  0.20104925  0.49954219     0.02700
C661        C  0.60336653  0.20489266  0.49923610    -0.22700
C662        C  0.62581070  0.22788453  0.51162668     0.11900
S663        S  0.63480082  0.27607197  0.53723257    -0.06300
C664        C  0.68344729  0.26534267  0.52562609    -0.09800
C665        C  0.67313824  0.23861571  0.51254922    -0.26400
S666        S  0.52019171  0.18081879  0.48446298    -0.03600
C667        C  0.47024916  0.19508127  0.49489447    -0.17000
C668        C  0.47942838  0.21415675  0.50941877    -0.15000
H669        H  0.53013344  0.25520046  0.53409288     0.20300
H670        H  0.62352387  0.19258043  0.48932463     0.16400
H671        H  0.69881509  0.22908048  0.50373758     0.18900
H672        H  0.45231114  0.22794041  0.51711824     0.12200
C673        C  0.75286091  0.03044506  0.49278390     0.16100
C674        C  0.76379790  0.07920285  0.49225550    -0.32900
C675        C  0.78930837  0.09840861  0.50470515     0.20500
C676        C  0.80299357  0.07080830  0.51735166     0.02700
C677        C  0.79158956  0.02175030  0.51796098    -0.22700
C678        C  0.76629435  0.00224037  0.50534780     0.11900
S679        S  0.72554527  0.00021902  0.47814841    -0.06300
C680        C  0.73218774  0.94858174  0.48892757    -0.09800
C681        C  0.75391260  0.95502045  0.50326188    -0.26400
S682        S  0.83380175  0.10217063  0.53125514    -0.03600
C683        C  0.82832314  0.15250429  0.51968979    -0.17000
C684        C  0.80374582  0.14479745  0.50596268    -0.15000
H685        H  0.75365522  0.10116408  0.48236284     0.20300
H686        H  0.80252997  0.99962665  0.52771249     0.16400
H687        H  0.76262189  0.92631893  0.51129955     0.18900
H688        H  0.79601494  0.17218427  0.49734221     0.12200
C689        C  0.75274572  0.52516711  0.51042605     0.16100
C690        C  0.73648674  0.57244528  0.51103969    -0.32900
C691        C  0.72436470  0.59501552  0.49708291     0.20500
C692        C  0.72825738  0.57196788  0.48298490     0.02700
C693        C  0.74479157  0.52429830  0.48234663    -0.22700
C694        C  0.75690360  0.50146367  0.49642848     0.11900
S695        S  0.76792166  0.49187613  0.52627100    -0.06300
C696        C  0.78014905  0.44494165  0.51407330    -0.09800
C697        C  0.77288647  0.45512924  0.49845735    -0.26400
S698        S  0.71184535  0.60706099  0.46741311    -0.03600
C699        C  0.69972853  0.65280324  0.48019856    -0.17000
C700        C  0.70815100  0.64089399  0.49556002    -0.15000
H701        H  0.73320588  0.59090494  0.52199737     0.20300
H702        H  0.74796656  0.50582252  0.47139691     0.16400
H703        H  0.77804835  0.42975719  0.48915972     0.18900
H704        H  0.70332732  0.66501511  0.50522946     0.12200
C705        C  0.95233878  0.50896276  0.93851036     0.16100
C706        C  0.97025664  0.46198801  0.93845544    -0.32900
C707        C  0.01994131  0.45595223  0.93907173     0.20500
C708        C  0.05059320  0.49483304  0.93927786     0.02700
C709        C  0.03269514  0.54178794  0.93907284    -0.22700
C710        C  0.98301137  0.54780820  0.93889668     0.11900
S711        S  0.89326161  0.52393542  0.93966816    -0.06300
C712        C  0.91017942  0.58308530  0.94106431    -0.09800
C713        C  0.95903371  0.59034869  0.94025833    -0.26400
S714        S  0.10952546  0.47988916  0.94122891    -0.03600
C715        C  0.09260579  0.42065609  0.94214972    -0.17000
C716        C  0.04386551  0.41333906  0.94065465    -0.15000
H717        H  0.94650179  0.43147317  0.93865284     0.20300
H718        H  0.05640423  0.57228085  0.93974157     0.16400
H719        H  0.97633048  0.62479636  0.94150140     0.18900
H720        H  0.02660069  0.37874853  0.94146357     0.12200
C721        C  0.28667585  0.77646901  0.14316490     0.16100
C722        C  0.28629672  0.80732569  0.13026935    -0.32900
C723        C  0.28082583  0.78680692  0.11553718     0.20500
C724        C  0.27543719  0.73775847  0.11372651     0.02700
C725        C  0.27395802  0.70712129  0.12666360    -0.22700
C726        C  0.28007841  0.72757353  0.14137899     0.11900
S727        S  0.29899903  0.79347480  0.16178236    -0.06300
C728        C  0.29504747  0.73411113  0.16727307    -0.09800
C729        C  0.28406456  0.70322819  0.15519532    -0.26400
S730        S  0.27560922  0.71928960  0.09485168    -0.03600
C731        C  0.28253648  0.77830181  0.08930729    -0.17000
C732        C  0.28393871  0.81031862  0.10156346    -0.15000
H733        H  0.29227240  0.84542487  0.13160423     0.20300
H734        H  0.27052738  0.66872303  0.12527583     0.16400
H735        H  0.28180682  0.66461587  0.15631807     0.18900
H736        H  0.29017463  0.84845034  0.10034219     0.12200
C737        C  0.08752188  0.76471944  0.02175543     0.16100
C738        C  0.04003225  0.74845626  0.02227283    -0.32900
C739        C  0.01871853  0.73347134  0.00828123     0.20500
C740        C  0.04391270  0.73440637  0.99452944     0.02700
C741        C  0.09107644  0.74996447  0.99406800    -0.22700
C742        C  0.11195158  0.76530473  0.00788692     0.11900
S743        S  0.12031756  0.78604952  0.03712759    -0.06300
C744        C  0.16682314  0.79597060  0.02453391    -0.09800
C745        C  0.15692980  0.78301634  0.00940030    -0.26400
S746        S  0.01179194  0.71911434  0.97857659    -0.03600
C747        C  0.96325826  0.71133516  0.99034071    -0.17000
C748        C  0.97208852  0.71953050  0.00595730    -0.15000
H749        H  0.02029297  0.74847360  0.03300322     0.20300
H750        H  0.11039421  0.75129815  0.98325097     0.16400
H751        H  0.18162802  0.78629766  0.99986350     0.18900
H752        H  0.94520024  0.71863223  0.01488477     0.12200
C753        C  0.58645477  0.73573005  0.98445298     0.16100
C754        C  0.53703087  0.74429491  0.98412899    -0.32900
C755        C  0.51666820  0.76714394  0.99699448     0.20500
C756        C  0.54432626  0.78070131  0.00958903     0.02700
C757        C  0.59360864  0.77304491  0.00976674    -0.22700
C758        C  0.61381638  0.75026123  0.99697804     0.11900
S759        S  0.61826576  0.70647682  0.97044847    -0.06300
C760        C  0.66877394  0.71434179  0.98163719    -0.09800
C761        C  0.66079975  0.73845859  0.99538000    -0.26400
S762        S  0.51290347  0.80356725  0.02468754    -0.03600
C763        C  0.46173722  0.79551708  0.01392935    -0.17000
C764        C  0.46907571  0.77629163  0.99934200    -0.15000
H765        H  0.51527513  0.73272577  0.97445056     0.20300
H766        H  0.61517120  0.78329465  0.01965285     0.16400
H767        H  0.68802605  0.74641813  0.00393413     0.18900
H768        H  0.44087393  0.76669928  0.99132412     0.12200
C769        C  0.27544539  0.60682660  0.00348218     0.16100
C770        C  0.25993896  0.57601747  0.99183733    -0.32900
C771        C  0.24519128  0.53023975  0.99618807     0.20500
C772        C  0.24530155  0.51549953  0.01152069     0.02700
C773        C  0.26048859  0.54683508  0.02332605    -0.22700
C774        C  0.27595661  0.59294426  0.01891632     0.11900
S775        S  0.29443995  0.66340568  0.00011768    -0.06300
C776        C  0.30349425  0.66964008  0.01973384    -0.09800
C777        C  0.29244811  0.62913885  0.02843064    -0.26400
S778        S  0.22834784  0.45690812  0.01398111    -0.03600
C779        C  0.22199894  0.45270028  0.99412878    -0.17000
C780        C  0.23156092  0.49484286  0.98626010    -0.15000
H781        H  0.25999631  0.58711563  0.97980769     0.20300
H782        H  0.26096695  0.53554522  0.03532654     0.16400
H783        H  0.29471848  0.62690488  0.04092011     0.18900
H784        H  0.23069327  0.49884341  0.97378563     0.12200
C785        C  0.26714487  0.02313519  0.99293059     0.16100
C786        C  0.26803721  0.06008950  0.98183768    -0.32900
C787        C  0.22958224  0.09253570  0.98154978     0.20500
C788        C  0.19176818  0.08779470  0.99170546     0.02700
C789        C  0.19076426  0.05090514  0.00264331    -0.22700
C790        C  0.22941004  0.01927568  0.00312377     0.11900
S791        S  0.31034945  0.98024226  0.99555125    -0.06300
C792        C  0.27720771  0.95784411  0.01065900    -0.09800
C793        C  0.23517826  0.98235197  0.01334058    -0.26400
S794        S  0.15096357  0.13283903  0.99080133    -0.03600
C795        C  0.18518130  0.15897809  0.97671697    -0.17000
C796        C  0.22570418  0.13347975  0.97273576    -0.15000
H797        H  0.29791452  0.06410185  0.97405212     0.20300
H798        H  0.16171329  0.04790744  0.01080892     0.16400
H799        H  0.20951400  0.97300104  0.02217339     0.18900
H800        H  0.25288478  0.14636490  0.96491205     0.12200
C801        C  0.73046900  0.23381639  0.14221166     0.16100
C802        C  0.72962173  0.20287758  0.12946698    -0.32900
C803        C  0.72883133  0.22347579  0.11462098     0.20500
C804        C  0.72855344  0.27277359  0.11251080     0.02700
C805        C  0.73054334  0.30378727  0.12528019    -0.22700
C806        C  0.73157621  0.28312788  0.14016295     0.11900
S807        S  0.72738073  0.21577143  0.16109742    -0.06300
C808        C  0.72833604  0.27524002  0.16641524    -0.09800
C809        C  0.73102296  0.30710812  0.15404133    -0.26400
S810        S  0.72284206  0.29040214  0.09356199    -0.03600
C811        C  0.72176025  0.23070192  0.08844439    -0.17000
C812        C  0.72571391  0.19923435  0.10086929    -0.15000
H813        H  0.72832445  0.16437480  0.13106003     0.20300
H814        H  0.72997817  0.34231755  0.12369883     0.16400
H815        H  0.72998989  0.34576509  0.15510840     0.18900
H816        H  0.72391798  0.16057045  0.09994189     0.12200
C817        C  0.55289288  0.00707614  0.06405083     0.16100
C818        C  0.53422392  0.96028160  0.06421090    -0.32900
C819        C  0.48438219  0.95504576  0.06383909     0.20500
C820        C  0.45463273  0.99481803  0.06340710     0.02700
C821        C  0.47327324  0.04153543  0.06336027    -0.22700
C822        C  0.52303941  0.04676379  0.06365769     0.11900
S823        S  0.61214379  0.02093538  0.06327455    -0.06300
C824        C  0.59679480  0.08096413  0.06238969    -0.09800
C825        C  0.54795148  0.08922081  0.06279366    -0.26400
S826        S  0.39549956  0.98128965  0.06195885    -0.03600
C827        C  0.41051142  0.92118721  0.06188325    -0.17000
C828        C  0.45926884  0.91260419  0.06305256    -0.15000
H829        H  0.55758658  0.92928490  0.06421741     0.20300
H830        H  0.44993920  0.07251038  0.06271439     0.16400
H831        H  0.53143718  0.12423238  0.06166859     0.18900
H832        H  0.47559752  0.87740918  0.06254401     0.12200
C833        C  0.41919454  0.26090068  0.98289247     0.16100
C834        C  0.46825511  0.25055471  0.98223917    -0.32900
C835        C  0.48928933  0.22737387  0.99510785     0.20500
C836        C  0.46245359  0.21471262  0.00790567     0.02700
C837        C  0.41359495  0.22392580  0.00837751    -0.22700
C838        C  0.39289593  0.24747721  0.99570067     0.11900
S839        S  0.38670227  0.29166615  0.96912767    -0.06300
C840        C  0.33759817  0.28604414  0.98090323    -0.09800
C841        C  0.34644729  0.26143070  0.99457947    -0.26400
S842        S  0.49447167  0.19212731  0.02306648    -0.03600
C843        C  0.54499819  0.19970347  0.01219926    -0.17000
C844        C  0.53696487  0.21798315  0.99742807    -0.15000
H845        H  0.48937836  0.26151981  0.97239104     0.20300
H846        H  0.39282369  0.21473749  0.01849626     0.16400
H847        H  0.32016832  0.25459226  0.00345162     0.18900
H848        H  0.56479206  0.22747386  0.98935036     0.12200
C849        C  0.98741059  0.26511670  0.01234172     0.16100
C850        C  0.95472233  0.25826625  0.02448332    -0.32900
C851        C  0.91456271  0.22928903  0.02152205     0.20500
C852        C  0.90826117  0.20781845  0.00720271     0.02700
C853        C  0.94062405  0.21444162  0.99526870    -0.22700
C854        C  0.97973580  0.24375473  0.99810592     0.11900
S855        S  0.03876053  0.29851948  0.01311681    -0.06300
C856        C  0.04890009  0.28336784  0.99404443    -0.09800
C857        C  0.01422854  0.25431580  0.98766563    -0.26400
S858        S  0.85715253  0.17652678  0.00511758    -0.03600
C859        C  0.84234940  0.19302033  0.02361972    -0.17000
C860        C  0.87656530  0.22038434  0.03120829    -0.15000
H861        H  0.95995149  0.27531179  0.03562062     0.20300
H862        H  0.93497753  0.19804957  0.98402792     0.16400
H863        H  0.01487735  0.24024082  0.97597929     0.18900
H864        H  0.87252064  0.23533062  0.04267538     0.12200
C865        C  0.77920747  0.91959299  0.98027564     0.16100
C866        C  0.75374040  0.96323162  0.98059528    -0.32900
C867        C  0.74931516  0.98633750  0.99500443     0.20500
C868        C  0.76978727  0.96683701  0.00827959     0.02700
C869        C  0.79565055  0.92432402  0.00788833    -0.22700
C870        C  0.79968233  0.90136737  0.99370789     0.11900
S871        S  0.78542689  0.88244617  0.96458830    -0.06300
C872        C  0.81489106  0.84238407  0.97660858    -0.09800
C873        C  0.82064993  0.85805603  0.99162346    -0.26400
S874        S  0.76162647  0.99886300  0.02461614    -0.03600
C875        C  0.73063798  0.04017904  0.01368022    -0.17000
C876        C  0.72633048  0.02896607  0.99806993    -0.15000
H877        H  0.73736705  0.97791787  0.97021383     0.20300
H878        H  0.81135397  0.90920900  0.01832811     0.16400
H879        H  0.83685451  0.83724192  0.00090424     0.18900
H880        H  0.70928565  0.05156985  0.98942666     0.12200
C881        C  0.75759489  0.48584254  0.01058379     0.16100
C882        C  0.74274182  0.45406426  0.02234067    -0.32900
C883        C  0.72523011  0.40883624  0.01782415     0.20500
C884        C  0.72296052  0.39633177  0.00231981     0.02700
C885        C  0.73766143  0.42777065  0.99071291    -0.22700
C886        C  0.75499460  0.47247236  0.99518481     0.11900
S887        S  0.77822056  0.54317994  0.01320839    -0.06300
C888        C  0.78280646  0.54863812  0.99333932    -0.09800
C889        C  0.76961103  0.50783438  0.98535213    -0.26400
S890        S  0.70307095  0.34005679  0.99886178    -0.03600
C891        C  0.69763839  0.33211695  0.01851733    -0.17000
C892        C  0.71012686  0.37188446  0.02729929    -0.15000
H893        H  0.74466742  0.46414063  0.03441776     0.20300
H894        H  0.73577288  0.41768135  0.97862600     0.16400
H895        H  0.76885927  0.50478336  0.97285311     0.18900
H896        H  0.71042312  0.37284476  0.03982395     0.12200
C897        C  0.70219372  0.72215012  0.86597841     0.16100
C898        C  0.69354977  0.71866890  0.88195222    -0.32900
C899        C  0.73302663  0.72037082  0.89204926     0.20500
C900        C  0.77880364  0.72665935  0.88646034     0.02700
C901        C  0.78743792  0.72979160  0.87053839    -0.22700
C902        C  0.74824382  0.72670576  0.86045748     0.11900
S903        S  0.65973992  0.71780862  0.85174755    -0.06300
C904        C  0.70473216  0.72044680  0.83827563    -0.09800
C905        C  0.74996342  0.72531966  0.84460277    -0.26400
S906        S  0.82206821  0.72714245  0.90039649    -0.03600
C907        C  0.77847365  0.71732231  0.91398384    -0.17000
C908        C  0.73261497  0.71456626  0.90788560    -0.15000
H909        H  0.65779956  0.71355877  0.88628738     0.20300
H910        H  0.82337053  0.73316943  0.86617792     0.16400
H911        H  0.78254209  0.72602404  0.83796025     0.18900
H912        H  0.70095680  0.70755655  0.91461041     0.12200
C913        C  0.22214001  0.27591481  0.88724889     0.16100
C914        C  0.21383860  0.27194323  0.87128336    -0.32900
C915        C  0.25349704  0.27161555  0.86149461     0.20500
C916        C  0.29953707  0.27410179  0.86736127     0.02700
C917        C  0.30784570  0.27877364  0.88334773    -0.22700
C918        C  0.26803905  0.28007906  0.89313246     0.11900
S919        S  0.17857337  0.27812265  0.90090486    -0.06300
C920        C  0.22232979  0.28612150  0.91474196    -0.09800
C921        C  0.26838123  0.28642161  0.90892814    -0.26400
S922        S  0.34272246  0.27339375  0.85348889    -0.03600
C923        C  0.29823700  0.27103770  0.83963029    -0.17000
C924        C  0.25249886  0.27043084  0.84560466    -0.15000
H925        H  0.17792359  0.26993205  0.86666975     0.20300
H926        H  0.34371285  0.28199056  0.88792857     0.16400
H927        H  0.30025249  0.29173978  0.91584162     0.18900
H928        H  0.22020819  0.27040990  0.83866713     0.12200
C929        C  0.49998765  0.44241833  0.81445636     0.16100
C930        C  0.54535006  0.46342806  0.81525028    -0.32900
C931        C  0.54813553  0.51352158  0.81383466     0.20500
C932        C  0.50742624  0.54141067  0.81206008     0.02700
C933        C  0.46206778  0.52056741  0.81179457    -0.22700
C934        C  0.45935907  0.47051389  0.81287712     0.11900
S935        S  0.48945116  0.38216665  0.81365978    -0.06300
C936        C  0.42972131  0.39505064  0.81115171    -0.09800
C937        C  0.41888705  0.44355086  0.81122129    -0.26400
S938        S  0.51822066  0.60065745  0.80875484    -0.03600
C939        C  0.57834280  0.58799136  0.80966144    -0.17000
C940        C  0.58906608  0.54022937  0.81268159    -0.15000
H941        H  0.57721155  0.44152089  0.81610681     0.20300
H942        H  0.43039545  0.54225179  0.81000689     0.16400
H943        H  0.38369673  0.45836547  0.80910063     0.18900
H944        H  0.62477709  0.52537368  0.81302783     0.12200
C945        C  0.23490674  0.73665278  0.61543708     0.16100
C946        C  0.25463360  0.74159601  0.63042170    -0.32900
C947        C  0.22292211  0.74538764  0.64298164     0.20500
C948        C  0.17402901  0.74370693  0.64061737     0.02700
C949        C  0.15452292  0.73991436  0.62574203    -0.22700
C950        C  0.18594118  0.73677086  0.61328514     0.11900
S951        S  0.26622694  0.72862706  0.59858214    -0.06300
C952        C  0.21255172  0.72678440  0.58865058    -0.09800
C953        C  0.17308641  0.73190047  0.59807538    -0.26400
S954        S  0.14109064  0.74748979  0.65702162    -0.03600
C955        C  0.19332168  0.75269045  0.66745289    -0.17000
C956        C  0.23433102  0.75116904  0.65845755    -0.15000
H957        H  0.29284839  0.74205426  0.63221856     0.20300
H958        H  0.11629168  0.73914912  0.62395467     0.16400
H959        H  0.13647531  0.73009700  0.59406209     0.18900
H960        H  0.27025136  0.75478937  0.66294461     0.12200
C961        C  0.92328048  0.71599958  0.77681895     0.16100
C962        C  0.97147144  0.70914423  0.77332050    -0.32900
C963        C  0.99531632  0.74661455  0.76579200     0.20500
C964        C  0.97299743  0.78999957  0.76252921     0.02700
C965        C  0.92504889  0.79721779  0.76632418    -0.22700
C966        C  0.90058094  0.75887895  0.77317527     0.11900
S967        S  0.88631656  0.67237538  0.78376954    -0.06300
C968        C  0.83952608  0.71155376  0.78103271    -0.09800
C969        C  0.85253876  0.75654908  0.77563820    -0.26400
S970        S  0.00687825  0.82926893  0.75206055    -0.03600
C971        C  0.05075407  0.78616514  0.75173526    -0.17000
C972        C  0.03994716  0.74427402  0.75957798    -0.15000
H973        H  0.98884226  0.67493154  0.77548706     0.20300
H974        H  0.90676686  0.83020910  0.76316913     0.16400
H975        H  0.82765507  0.78511573  0.77275199     0.18900
H976        H  0.06262057  0.71270247  0.75992767     0.12200
C977        C  0.39645069  0.71473015  0.74455081     0.16100
C978        C  0.42901663  0.69219802  0.75449415    -0.32900
C979        C  0.47718406  0.69413087  0.75060975     0.20500
C980        C  0.49242784  0.71560714  0.73701946     0.02700
C981        C  0.45941913  0.73708801  0.72675805    -0.22700
C982        C  0.41107759  0.73705544  0.73102261     0.11900
S983        S  0.33776516  0.72156561  0.74860165    -0.06300
C984        C  0.33221307  0.75602814  0.73209719    -0.09800
C985        C  0.37396294  0.76065412  0.72366649    -0.26400
S986        S  0.55320669  0.71912290  0.73554277    -0.03600
C987        C  0.55738616  0.69310851  0.75363085    -0.17000
C988        C  0.51417112  0.68105209  0.76009873    -0.15000
H989        H  0.41756647  0.67652401  0.76534515     0.20300
H990        H  0.47121640  0.75562019  0.71643547     0.16400
H991        H  0.37738349  0.78165372  0.71316436     0.18900
H992        H  0.50996524  0.66713635  0.77174122     0.12200
C993        C  0.21837164  0.58431780  0.75275746     0.16100
C994        C  0.23697501  0.55359727  0.76404025    -0.32900
C995        C  0.25424658  0.50925923  0.75925060     0.20500
C996        C  0.25275162  0.49540823  0.74387965     0.02700
C997        C  0.23448130  0.52672995  0.73242328    -0.22700
C998        C  0.21736671  0.57177691  0.73724616     0.11900
S999        S  0.19714219  0.63969729  0.75664343    -0.06300
C1000       C  0.18738631  0.64767143  0.73710280    -0.09800
C1001       C  0.19934224  0.60836601  0.72807195    -0.26400
S1002       S  0.27296217  0.43808038  0.74093768    -0.03600
C1003       C  0.28355180  0.43366154  0.76061490    -0.17000
C1004       C  0.27234303  0.47458447  0.76878180    -0.15000
H1005       H  0.23789717  0.56387824  0.77611682     0.20300
H1006       H  0.23344907  0.51640449  0.72036451     0.16400
H1007       H  0.19688616  0.60736534  0.71557315     0.18900
H1008       H  0.27510582  0.47805768  0.78123983     0.12200
C1009       C  0.26512014  0.01766325  0.74405015     0.16100
C1010       C  0.28821294  0.06176405  0.74394489    -0.32900
C1011       C  0.29444392  0.08488921  0.75809540     0.20500
C1012       C  0.27767684  0.06599340  0.77185895     0.02700
C1013       C  0.25400750  0.02161996  0.77196510    -0.22700
C1014       C  0.24860187  0.99775940  0.75772861     0.11900
S1015       S  0.25747283  0.98304791  0.72809142    -0.06300
C1016       C  0.23273195  0.94028420  0.73990246    -0.09800
C1017       C  0.22952544  0.95311589  0.75537980    -0.26400
S1018       S  0.28841737  0.10172938  0.78766666    -0.03600
C1019       C  0.31577506  0.14188229  0.77539025    -0.17000
C1020       C  0.31642799  0.12769346  0.76006689    -0.15000
H1021       H  0.30157797  0.07707983  0.73328831     0.20300
H1022       H  0.24107767  0.00610023  0.78263707     0.16400
H1023       H  0.21582758  0.93028145  0.76447244     0.18900
H1024       H  0.33098127  0.14863738  0.75063253     0.12200
C1025       C  0.85118148  0.24146215  0.61368693     0.16100
C1026       C  0.87132213  0.23338123  0.62833781    -0.32900
C1027       C  0.84085410  0.23359914  0.64110261     0.20500
C1028       C  0.79218105  0.24066123  0.63942300     0.02700
C1029       C  0.77201154  0.24959525  0.62470568    -0.22700
C1030       C  0.80276771  0.25011210  0.61187713     0.11900
S1031       S  0.88272686  0.24308302  0.59692809    -0.06300
C1032       C  0.83056579  0.25670887  0.58718389    -0.09800
C1033       C  0.79068702  0.25931622  0.59663477    -0.26400
S1034       S  0.76139382  0.23646749  0.65648475    -0.03600
C1035       C  0.81499890  0.22647655  0.66590459    -0.17000
C1036       C  0.85412290  0.22615631  0.65619974    -0.15000
H1037       H  0.90923230  0.22724113  0.62973235     0.20300
H1038       H  0.73412543  0.25576219  0.62331552     0.16400
H1039       H  0.75514809  0.26844867  0.59263705     0.18900
H1040       H  0.89039904  0.21913529  0.65995173     0.12200
C1041       C  0.96441065  0.00729093  0.69108099     0.16100
C1042       C  0.97777787  0.95898085  0.68953581    -0.32900
C1043       C  0.02594048  0.94704222  0.69197131     0.20500
C1044       C  0.05961470  0.98198233  0.69516644     0.02700
C1045       C  0.04629357  0.03027236  0.69664535    -0.22700
C1046       C  0.99787421  0.04192399  0.69479332     0.11900
S1047       S  0.90714703  0.02832250  0.69010277    -0.06300
C1048       C  0.92819320  0.08406907  0.69527148    -0.09800
C1049       C  0.97733246  0.08600402  0.69722260    -0.26400
S1050       S  0.11577734  0.96017509  0.69836550    -0.03600
C1051       C  0.09349717  0.90316493  0.69597769    -0.17000
C1052       C  0.04512870  0.90161321  0.69254273    -0.15000
H1053       H  0.95143480  0.93161467  0.68718595     0.20300
H1054       H  0.07227186  0.05730564  0.69973072     0.16400
H1055       H  0.99678253  0.11749575  0.70090004     0.18900
H1056       H  0.02479877  0.86896089  0.69113352     0.12200
C1057       C  0.72010337  0.92203815  0.77086597     0.16100
C1058       C  0.73502638  0.97021590  0.77157941    -0.32900
C1059       C  0.75287899  0.99123481  0.75790663     0.20500
C1060       C  0.75587583  0.96521285  0.74431020     0.02700
C1061       C  0.74104764  0.91773371  0.74362373    -0.22700
C1062       C  0.72305699  0.89714154  0.75708386     0.11900
S1063       S  0.69789097  0.88825031  0.78590614    -0.06300
C1064       C  0.69265627  0.84084144  0.77321219    -0.09800
C1065       C  0.70727407  0.85138055  0.75832894    -0.26400
S1066       S  0.77685892  0.99605080  0.72882908    -0.03600
C1067       C  0.78146507  0.04545728  0.74052492    -0.17000
C1068       C  0.76783875  0.03778655  0.75579809    -0.15000
H1069       H  0.73265598  0.99039042  0.78223075     0.20300
H1070       H  0.74311984  0.89763376  0.73294110     0.16400
H1071       H  0.70745820  0.82622227  0.74880551     0.18900
H1072       H  0.76730831  0.06509184  0.76466743     0.12200
C1073       C  0.79823780  0.42349296  0.73361144     0.16100
C1074       C  0.79267164  0.47376893  0.73385069    -0.32900
C1075       C  0.76505843  0.49369138  0.74582456     0.20500
C1076       C  0.74370147  0.46465512  0.75683165     0.02700
C1077       C  0.74886114  0.41495047  0.75649274    -0.22700
C1078       C  0.77680638  0.39533309  0.74480501     0.11900
S1079       S  0.83155701  0.39116231  0.72062413    -0.06300
C1080       C  0.81695350  0.33987134  0.73079046    -0.09800
C1081       C  0.78730582  0.34791953  0.74325130    -0.26400
S1082       S  0.71387021  0.49441860  0.77089448    -0.03600
C1083       C  0.73018234  0.54721041  0.76211601    -0.17000
C1084       C  0.75703596  0.54160272  0.74875180    -0.15000
H1085       H  0.80981388  0.49630290  0.72532787     0.20300
H1086       H  0.73269634  0.39248321  0.76524455     0.16400
H1087       H  0.77418951  0.32023628  0.75094404     0.18900
H1088       H  0.77144279  0.57083037  0.74197186     0.12200
C1089       C  0.08898230  0.26384064  0.77567686     0.16100
C1090       C  0.03930476  0.26777693  0.77428078    -0.32900
C1091       C  0.01552658  0.23321982  0.76536435     0.20500
C1092       C  0.03986791  0.19548921  0.75856831     0.02700
C1093       C  0.08927584  0.19093798  0.76027611    -0.22700
C1094       C  0.11316857  0.22636739  0.76870930     0.11900
S1095       S  0.12525411  0.30516551  0.78435732    -0.06300
C1096       C  0.17333484  0.27229535  0.77804586    -0.09800
C1097       C  0.16143179  0.23090688  0.77011128    -0.26400
S1098       S  0.00578202  0.16065945  0.74669185    -0.03600
C1099       C  0.95842152  0.19746813  0.75081504    -0.17000
C1100       C  0.96854624  0.23437551  0.76096045    -0.15000
H1101       H  0.02032877  0.29792642  0.77921101     0.20300
H1102       H  0.10864494  0.16253483  0.75450666     0.16400
H1103       H  0.18692121  0.20632472  0.76506047     0.18900
H1104       H  0.94374973  0.26267561  0.76396391     0.12200
C1105       C  0.58962895  0.22399040  0.73014913     0.16100
C1106       C  0.53950579  0.22377151  0.73057829    -0.32900
C1107       C  0.51722309  0.25070286  0.74224906     0.20500
C1108       C  0.54370949  0.27678812  0.75287931     0.02700
C1109       C  0.59335027  0.27773220  0.75224575    -0.22700
C1110       C  0.61542839  0.25067939  0.74075747     0.11900
S1111       S  0.62451488  0.19088960  0.71787594    -0.06300
C1112       C  0.67391287  0.21332453  0.72735395    -0.09800
C1113       C  0.66332055  0.24506997  0.73912826    -0.26400
S1114       S  0.51129047  0.30307823  0.76710945    -0.03600
C1115       C  0.46121436  0.27947041  0.75863170    -0.17000
C1116       C  0.46934006  0.25248984  0.74545666    -0.15000
H1117       H  0.51893402  0.20240522  0.72254255     0.20300
H1118       H  0.61402606  0.29734787  0.76071838     0.16400
H1119       H  0.68945830  0.26200290  0.74657483     0.18900
H1120       H  0.44214977  0.23285992  0.73921592     0.12200
loop_ 
_geom_bond_atom_site_label_1 
_geom_bond_atom_site_label_2 
_geom_bond_distance 
_geom_bond_site_symmetry_2 
_ccdc_geom_bond_type 
O1           C16   1.257       .  A
O1           Al9   1.861       .  S
C2           O12   1.269       .  A
C2            O3   1.275       .  A
C2         C1048   1.479       .  S
O3           Al5   1.944       .  S
O4            C6   1.254       .  A
O4           Al5   1.880       .  S
Al5          O13   1.913       .  S
Al5          O15   1.939       .  S
Al5          O14   1.783       .  S
C6           O19   1.256       .  A
C6         C1067   1.472       .  S
O7           C17   1.257       .  A
O7           Al9   1.903       .  S
O8           C21   1.271       .  A
O8          Al18   1.926       .  S
Al9          O22   1.914       .  S
Al9          O19   1.909       .  S
Al9          O14   1.784       .  S
O10          C17   1.258       .  A
O10         Al18   1.914       .  S
O11          C20   1.255       .  A
O11         Al18   1.906       .  S
O12         Al18   1.898       .  S
O13          C20   1.254       .  A
O14         Al18   1.790       .  S
O15          C16   1.267       .  A
C16        C1112   1.474       .  S
C17        C1099   1.459       .  S
C20        C1035   1.478       .  S
C21          O22   1.269       .  A
C21        C1080   1.477       .  S
O23          C38   1.260       .  A
O23         Al31   1.874       .  S
C24          O34   1.276       .  A
C24          O25   1.279       .  A
C24        C1051   1.474       .  S
O25         Al27   1.937       .  S
O26          C28   1.252       .  A
O26         Al27   1.883       .  S
Al27         O35   1.915       .  S
Al27         O37   1.932       .  S
Al27         O36   1.788       .  S
C28          O41   1.250       .  A
C28        C1016   1.468       .  S
O29          C39   1.253       .  A
O29         Al31   1.907       .  S
O30          C43   1.276       .  A
O30         Al40   1.936       .  S
Al31         O44   1.904       .  S
Al31         O41   1.884       .  S
Al31         O36   1.784       .  S
O32          C39   1.255       .  A
O32         Al40   1.916       .  S
O33          C42   1.249       .  A
O33         Al40   1.890       .  S
O34         Al40   1.907       .  S
O35          C42   1.250       .  A
O36         Al40   1.789       .  S
O37          C38   1.268       .  A
C38         C984   1.475       .  S
C39         C971   1.462       .  S
C42         C955   1.481       .  S
C43          O44   1.269       .  A
C43        C1000   1.473       .  S
O45          C60   1.260       .  A
O45         Al53   1.875       .  S
C46          O56   1.265       .  A
C46          O47   1.272       .  A
C46         C936   1.473       .  S
O47         Al49   1.934       .  S
O48          C50   1.253       .  A
O48         Al49   1.879       .  S
Al49         O57   1.897       .  S
Al49         O59   1.935       .  S
Al49         O58   1.776       .  S
C50          O63   1.255       .  A
C50        C1003   1.472       .  S
O51          C61   1.263       .  A
O51         Al53   1.902       .  S
O52          C65   1.269       .  A
O52         Al62   1.937       .  S
Al53         O66   1.892       .  S
Al53         O63   1.911       .  S
Al53         O58   1.787       .  S
O54          C61   1.265       .  A
O54         Al62   1.924       .  S
O55          C64   1.256       .  A
O55         Al62   1.917       .  S
O56         Al62   1.889       .  S
O57          C64   1.253       .  A
O58         Al62   1.787       .  S
O59          C60   1.269       .  A
C60        C1096   1.470       .  S
C61        C1115   1.460       .  S
C64         C923   1.476       .  S
C65          O66   1.261       .  A
C65        C1019   1.471       .  S
O67          C82   1.260       .  A
O67         Al75   1.878       .  S
C68          O78   1.262       .  A
C68          O69   1.270       .  A
C68         C939   1.474       .  S
O69         Al71   1.938       .  S
O70          C72   1.254       .  A
O70         Al71   1.883       .  S
Al71         O79   1.896       .  S
Al71         O81   1.944       .  S
Al71         O80   1.774       .  S
C72          O85   1.258       .  A
C72        C1083   1.473       .  S
O73          C83   1.264       .  A
O73         Al75   1.904       .  S
O74          C87   1.266       .  A
O74         Al84   1.934       .  S
Al75         O88   1.897       .  S
Al75         O85   1.929       .  S
Al75         O80   1.786       .  S
O76          C83   1.268       .  A
O76         Al84   1.924       .  S
O77          C86   1.259       .  A
O77         Al84   1.921       .  S
O78         Al84   1.882       .  S
O79          C86   1.256       .  A
O80         Al84   1.783       .  S
O81          C82   1.270       .  A
C82         C968   1.470       .  S
C83         C987   1.465       .  S
C86         C904   1.474       .  S
C87          O88   1.261       .  A
C87        C1064   1.476       .  S
O89         C104   1.268       .  A
O89         Al97   1.903       .  S
C90         O100   1.279       .  A
C90          O91   1.268       .  A
C90         C824   1.484       .  S
O91         Al93   1.889       .  S
O92          C94   1.255       .  A
O92         Al93   1.888       .  S
Al93        O101   1.906       .  S
Al93        O103   1.933       .  S
Al93        O102   1.794       .  S
C94         O107   1.257       .  A
C94         C875   1.467       .  S
O95         C105   1.255       .  A
O95         Al97   1.905       .  S
O96         C109   1.268       .  A
O96        Al106   1.942       .  S
Al97        O110   1.864       .  S
Al97        O107   1.913       .  S
Al97        O102   1.793       .  S
O98         C105   1.251       .  A
O98        Al106   1.872       .  S
O99         C108   1.249       .  A
O99        Al106   1.902       .  S
O100       Al106   1.958       .  S
O101        C108   1.250       .  A
O102       Al106   1.785       .  S
O103        C104   1.274       .  A
C104        C859   1.470       .  S
C105        C843   1.468       .  S
C108        C811   1.478       .  S
C109        O110   1.257       .  A
C109        C891   1.473       .  S
O111        C126   1.275       .  A
O111       Al119   1.925       .  S
C112        O122   1.284       .  A
C112        O113   1.271       .  A
C112        C827   1.484       .  S
O113       Al115   1.885       .  S
O114        C116   1.256       .  A
O114       Al115   1.908       .  S
Al115       O123   1.912       .  S
Al115       O125   1.923       .  S
Al115       O124   1.792       .  S
C116        O129   1.254       .  A
C116        C792   1.469       .  S
O117        C127   1.255       .  A
O117       Al119   1.906       .  S
O118        C131   1.270       .  A
O118       Al128   1.952       .  S
Al119       O132   1.852       .  S
Al119       O129   1.908       .  S
Al119       O124   1.782       .  S
O120        C127   1.252       .  A
O120       Al128   1.881       .  S
O121        C130   1.249       .  A
O121       Al128   1.908       .  S
O122       Al128   1.970       .  S
O123        C130   1.250       .  A
O124       Al128   1.777       .  S
O125        C126   1.275       .  A
C126        C744   1.478       .  S
C127        C763   1.471       .  S
C130        C731   1.479       .  S
C131        O132   1.255       .  A
C131        C776   1.474       .  S
O133        C148   1.259       .  A
O133       Al141   1.876       .  S
C134        O144   1.267       .  A
C134        O135   1.277       .  A
C134        C712   1.474       .  S
O135       Al137   1.948       .  S
O136        C138   1.253       .  A
O136       Al137   1.877       .  S
Al137       O145   1.909       .  S
Al137       O147   1.931       .  S
Al137       O146   1.787       .  S
C138        O151   1.256       .  A
C138        C888   1.478       .  S
O139        C149   1.259       .  A
O139       Al141   1.916       .  S
O140        C153   1.269       .  A
O140       Al150   1.918       .  S
Al141       O154   1.905       .  S
Al141       O151   1.912       .  S
Al141       O146   1.794       .  S
O142        C149   1.256       .  A
O142       Al150   1.900       .  S
O143        C152   1.249       .  A
O143       Al150   1.893       .  S
O144       Al150   1.878       .  S
O145        C152   1.251       .  A
O146       Al150   1.792       .  S
O147        C148   1.267       .  A
C148        C760   1.477       .  S
C149        C747   1.470       .  S
C152        C907   1.477       .  S
C153        O154   1.269       .  A
C153        C872   1.468       .  S
O155        C170   1.258       .  A
O155       Al163   1.866       .  S
C156        O166   1.266       .  A
C156        O157   1.276       .  A
C156        C715   1.473       .  S
O157       Al159   1.947       .  S
O158        C160   1.254       .  A
O158       Al159   1.880       .  S
Al159       O167   1.907       .  S
Al159       O169   1.933       .  S
Al159       O168   1.786       .  S
C160        O173   1.256       .  A
C160        C779   1.476       .  S
O161        C171   1.257       .  A
O161       Al163   1.912       .  S
O162        C175   1.268       .  A
O162       Al172   1.912       .  S
Al163       O176   1.913       .  S
Al163       O173   1.908       .  S
Al163       O168   1.794       .  S
O164        C171   1.259       .  A
O164       Al172   1.903       .  S
O165        C174   1.252       .  A
O165       Al172   1.904       .  S
O166       Al172   1.879       .  S
O167        C174   1.251       .  A
O168       Al172   1.790       .  S
O169        C170   1.266       .  A
C170        C840   1.474       .  S
C171        C856   1.474       .  S
C174        C920   1.478       .  S
C175        O176   1.267       .  A
C175        C795   1.457       .  S
O177        C192   1.260       .  A
O177       Al185   1.873       .  S
C178        O188   1.270       .  A
C178        O179   1.276       .  A
C178        C632   1.471       .  S
O179       Al181   1.935       .  S
O180        C182   1.252       .  A
O180       Al181   1.884       .  S
Al181       O189   1.913       .  S
Al181       O191   1.934       .  S
Al181       O190   1.789       .  S
C182        O195   1.253       .  A
C182        C696   1.474       .  S
O183        C193   1.255       .  A
O183       Al185   1.905       .  S
O184        C197   1.271       .  A
O184       Al194   1.924       .  S
Al185       O198   1.909       .  S
Al185       O195   1.899       .  S
Al185       O190   1.792       .  S
O186        C193   1.257       .  A
O186       Al194   1.909       .  S
O187        C196   1.249       .  A
O187       Al194   1.890       .  S
O188       Al194   1.892       .  S
O189        C196   1.252       .  A
O190       Al194   1.793       .  S
O191        C192   1.268       .  A
C192        C664   1.477       .  S
C193        C648   1.462       .  S
C196       C1032   1.481       .  S
C197        O198   1.267       .  A
C197        C683   1.476       .  S
O199        C214   1.258       .  A
O199       Al207   1.867       .  S
C200        O210   1.268       .  A
C200        O201   1.275       .  A
C200        C584   1.476       .  S
O201       Al203   1.944       .  S
O202        C204   1.252       .  A
O202       Al203   1.879       .  S
Al203       O211   1.903       .  S
Al203       O213   1.933       .  S
Al203       O212   1.781       .  S
C204        O217   1.257       .  A
C204        C680   1.472       .  S
O205        C215   1.259       .  A
O205       Al207   1.909       .  S
O206        C219   1.271       .  A
O206       Al216   1.927       .  S
Al207       O220   1.912       .  S
Al207       O217   1.914       .  S
Al207       O212   1.788       .  S
O208        C215   1.258       .  A
O208       Al216   1.906       .  S
O209        C218   1.251       .  A
O209       Al216   1.904       .  S
O210       Al216   1.887       .  S
O211        C218   1.252       .  A
O212       Al216   1.789       .  S
O213        C214   1.267       .  A
C214        C616   1.473       .  S
C215        C603   1.461       .  S
C218        C571   1.472       .  S
C219        O220   1.268       .  A
C219        C699   1.477       .  S
O221        C236   1.262       .  A
O221       Al229   1.888       .  S
C222        O232   1.269       .  A
C222        O223   1.272       .  A
C222        C587   1.475       .  S
O223       Al225   1.929       .  S
O224        C226   1.252       .  A
O224       Al225   1.882       .  S
Al225       O233   1.894       .  S
Al225       O235   1.915       .  S
Al225       O234   1.787       .  S
C226        O239   1.254       .  A
C226        C555   1.477       .  S
O227        C237   1.261       .  A
O227       Al229   1.912       .  S
O228        C241   1.270       .  A
O228       Al238   1.940       .  S
Al229       O242   1.898       .  S
Al229       O239   1.909       .  S
Al229       O234   1.793       .  S
O230        C237   1.260       .  A
O230       Al238   1.909       .  S
O231        C240   1.251       .  A
O231       Al238   1.902       .  S
O232       Al238   1.900       .  S
O233        C240   1.249       .  A
O234       Al238   1.795       .  S
O235        C236   1.265       .  A
C236        C651   1.472       .  S
C237        C667   1.467       .  S
C240        C520   1.474       .  S
C241        O242   1.264       .  A
C241        C536   1.481       .  S
O243        C258   1.260       .  A
O243       Al251   1.871       .  S
C244        O254   1.268       .  A
C244        O245   1.274       .  A
C244        C635   1.473       .  S
O245       Al247   1.935       .  S
O246        C248   1.253       .  A
O246       Al247   1.883       .  S
Al247       O255   1.919       .  S
Al247       O257   1.930       .  S
Al247       O256   1.789       .  S
C248        O261   1.253       .  A
C248        C539   1.475       .  S
O249        C259   1.258       .  A
O249       Al251   1.907       .  S
O250        C263   1.271       .  A
O250       Al260   1.934       .  S
Al251       O264   1.907       .  S
Al251       O261   1.906       .  S
Al251       O256   1.793       .  S
O252        C259   1.257       .  A
O252       Al260   1.906       .  S
O253        C262   1.251       .  A
O253       Al260   1.891       .  S
O254       Al260   1.889       .  S
O255        C262   1.253       .  A
O256       Al260   1.790       .  S
O257        C258   1.268       .  A
C258        C600   1.473       .  S
C259        C619   1.460       .  S
C262        C952   1.483       .  S
C263        O264   1.265       .  A
C263        C552   1.473       .  S
O265        C280   1.256       .  A
O265       Al273   1.871       .  S
C266        O276   1.272       .  A
C266        O267   1.269       .  A
C266        C440   1.481       .  S
O267       Al269   1.914       .  S
O268        C270   1.252       .  A
O268       Al269   1.880       .  S
Al269       O277   1.895       .  S
Al269       O279   1.903       .  S
Al269       O278   1.806       .  S
C270        O283   1.252       .  A
C270        C491   1.457       .  S
O271        C281   1.251       .  A
O271       Al273   1.902       .  S
O272        C285   1.272       .  A
O272       Al282   1.939       .  S
Al273       O286   1.882       .  S
Al273       O283   1.887       .  S
Al273       O278   1.811       .  S
O274        C281   1.248       .  A
O274       Al282   1.871       .  S
O275        C284   1.245       .  A
O275       Al282   1.879       .  S
O276       Al282   1.921       .  S
O277        C284   1.247       .  A
O278       Al282   1.802       .  S
O279        C280   1.259       .  A
C280        C472   1.466       .  S
C281        C459   1.467       .  S
C284        C568   1.472       .  S
C285        O286   1.263       .  A
C285        C507   1.480       .  S
O287        C302   1.270       .  A
O287       Al295   1.912       .  S
C288        O298   1.277       .  A
C288        O289   1.269       .  A
C288        C392   1.480       .  S
O289       Al291   1.896       .  S
O290        C292   1.257       .  A
O290       Al291   1.904       .  S
Al291       O299   1.913       .  S
Al291       O301   1.921       .  S
Al291       O300   1.792       .  S
C292        O305   1.253       .  A
C292        C411   1.467       .  S
O293        C303   1.254       .  A
O293       Al295   1.892       .  S
O294        C307   1.268       .  A
O294       Al304   1.946       .  S
Al295       O308   1.857       .  S
Al295       O305   1.903       .  S
Al295       O300   1.786       .  S
O296        C303   1.253       .  A
O296       Al304   1.880       .  S
O297        C306   1.254       .  A
O297       Al304   1.909       .  S
O298       Al304   1.948       .  S
O299        C306   1.254       .  A
O300       Al304   1.781       .  S
O301        C302   1.273       .  A
C302        C456   1.474       .  S
C303        C475   1.460       .  S
C306        C728   1.481       .  S
C307        O308   1.255       .  A
C307        C424   1.475       .  S
O309        C324   1.258       .  A
O309       Al317   1.870       .  S
C310        O320   1.268       .  A
C310        O311   1.276       .  A
C310        C443   1.479       .  S
O311       Al313   1.950       .  S
O312        C314   1.254       .  A
O312       Al313   1.877       .  S
Al313       O321   1.905       .  S
Al313       O323   1.935       .  S
Al313       O322   1.780       .  S
C314        O327   1.258       .  A
C314        C427   1.476       .  S
O315        C325   1.262       .  A
O315       Al317   1.927       .  S
O316        C329   1.269       .  A
O316       Al326   1.918       .  S
Al317       O330   1.912       .  S
Al317       O327   1.916       .  S
Al317       O322   1.788       .  S
O318        C325   1.259       .  A
O318       Al326   1.901       .  S
O319        C328   1.252       .  A
O319       Al326   1.906       .  S
O320       Al326   1.891       .  S
O321        C328   1.252       .  A
O322       Al326   1.788       .  S
O323        C324   1.267       .  A
C324        C379   1.475       .  S
C325        C363   1.474       .  S
C328        C523   1.474       .  S
C329        O330   1.267       .  A
C329        C408   1.458       .  S
O331        C346   1.266       .  A
O331       Al339   1.919       .  S
C332        O342   1.272       .  A
C332        O333   1.264       .  A
C332        C395   1.477       .  S
O333       Al335   1.887       .  S
O334        C336   1.264       .  A
O334       Al335   1.924       .  S
Al335       O343   1.930       .  S
Al335       O345   1.919       .  S
Al335       O344   1.785       .  S
C336        O349   1.260       .  A
C336        C504   1.467       .  S
O337        C347   1.261       .  A
O337       Al339   1.930       .  S
O338        C351   1.267       .  A
O338       Al348   1.939       .  S
Al339       O352   1.858       .  S
Al339       O349   1.901       .  S
Al339       O344   1.790       .  S
O340        C347   1.252       .  A
O340       Al348   1.870       .  S
O341        C350   1.254       .  A
O341       Al348   1.895       .  S
O342       Al348   1.943       .  S
O343        C350   1.259       .  A
O344       Al348   1.780       .  S
O345        C346   1.267       .  A
C346        C360   1.465       .  S
C347        C376   1.468       .  S
C350        C808   1.478       .  S
C351        O352   1.256       .  A
C351        C488   1.471       .  S
C353        S359   1.702       .  A
C353        C358   1.388       .  A
C353        C354   1.395       .  A
C354        C355   1.397   1_655  A
C354        H365   1.087       .  S
C355        C364   1.361       .  A
C355        C356   1.386   1_455  A
C356        S362   1.722   1_655  A
C356        C357   1.408       .  A
C357        C358   1.410       .  A
C357        H366   1.085       .  S
C358        C361   1.377       .  A
S359        C360   1.717       .  A
C360        C361   1.389       .  A
C361        H367   1.084       .  S
S362        C363   1.726       .  A
C363        C364   1.384       .  A
C364        H368   1.086       .  S
C369        S375   1.700       .  A
C369        C374   1.388       .  A
C369        C370   1.395       .  A
C370        C371   1.397       .  A
C370        H381   1.083       .  S
C371        C380   1.363       .  A
C371        C372   1.386       .  A
C372        S378   1.718       .  A
C372        C373   1.408       .  A
C373        C374   1.409       .  A
C373        H382   1.083       .  S
C374        C377   1.377       .  A
S375        C376   1.719       .  A
C376        C377   1.389       .  A
C377        H383   1.083       .  S
S378        C379   1.726       .  A
C379        C380   1.385       .  A
C380        H384   1.083       .  S
C385        S391   1.711       .  A
C385        C390   1.386       .  A
C385        C386   1.403       .  A
C386        C387   1.404       .  A
C386        H397   1.083       .  S
C387        C396   1.372       .  A
C387        C388   1.386       .  A
C388        S394   1.713       .  A
C388        C389   1.405       .  A
C389        C390   1.406       .  A
C389        H398   1.083       .  S
C390        C393   1.375       .  A
S391        C392   1.725       .  A
C392        C393   1.391       .  A
C393        H399   1.083       .  S
S394        C395   1.724       .  A
C395        C396   1.389       .  A
C396        H400   1.083       .  S
C401        S407   1.696       .  A
C401        C406   1.388       .  A
C401        C402   1.393       .  A
C402        C403   1.394       .  A
C402        H413   1.086       .  S
C403        C412   1.360       .  A
C403        C404   1.386       .  A
C404        S410   1.715       .  A
C404        C405   1.406       .  A
C405        C406   1.407       .  A
C405        H414   1.085       .  S
C406        C409   1.375       .  A
S407        C408   1.717       .  A
C408        C409   1.387       .  A
C409        H415   1.084       .  S
S410        C411   1.726       .  A
C411        C412   1.381       .  A
C412        H416   1.085       .  S
C417        S423   1.694       .  A
C417        C422   1.388       .  A
C417        C418   1.395       .  A
C418        C419   1.395       .  A
C418        H429   1.085       .  S
C419        C428   1.365   1_565  A
C419        C420   1.386       .  A
C420        S426   1.717   1_565  A
C420        C421   1.411       .  A
C421        C422   1.410       .  A
C421        H430   1.084       .  S
C422        C425   1.383       .  A
S423        C424   1.722       .  A
C424        C425   1.391       .  A
C425        H431   1.083       .  S
S426        C427   1.729       .  A
C427        C428   1.384       .  A
C428        H432   1.085       .  S
C433        S439   1.709       .  A
C433        C438   1.387       .  A
C433        C434   1.405   1_565  A
C434        C435   1.405   1_655  A
C434        H445   1.083       .  S
C435        C444   1.375       .  A
C435        C436   1.386       .  A
C436        S442   1.711       .  A
C436        C437   1.404   1_545  A
C437        C438   1.405   1_455  A
C437        H446   1.083       .  S
C438        C441   1.376       .  A
S439        C440   1.728       .  A
C440        C441   1.389       .  A
C441        H447   1.083       .  S
S442        C443   1.724       .  A
C443        C444   1.391       .  A
C444        H448   1.084       .  S
C449        S455   1.720       .  A
C449        C454   1.385       .  A
C449        C450   1.409       .  A
C450        C451   1.410       .  A
C450        H461   1.082       .  S
C451        C460   1.377   1_455  A
C451        C452   1.388       .  A
C452        S458   1.698       .  A
C452        C453   1.393       .  A
C453        C454   1.395       .  A
C453        H462   1.083       .  S
C454        C457   1.360       .  A
S455        C456   1.726       .  A
C456        C457   1.384       .  A
C457        H463   1.083       .  S
S458        C459   1.718   1_455  A
C459        C460   1.390       .  A
C460        H464   1.083       .  S
C465        S471   1.713       .  A
C465        C470   1.386       .  A
C465        C466   1.403       .  A
C466        C467   1.405       .  A
C466        H477   1.083       .  S
C467        C476   1.369       .  A
C467        C468   1.388       .  A
C468        S474   1.701       .  A
C468        C469   1.394       .  A
C469        C470   1.396       .  A
C469        H478   1.083       .  S
C470        C473   1.359       .  A
S471        C472   1.723       .  A
C472        C473   1.383       .  A
C473        H479   1.083       .  S
S474        C475   1.717       .  A
C475        C476   1.386       .  A
C476        H480   1.083       .  S
C481        S487   1.716       .  A
C481        C486   1.386       .  A
C481        C482   1.404       .  A
C482        C483   1.406       .  A
C482        H493   1.084       .  S
C483        C492   1.371   1_545  A
C483        C484   1.388       .  A
C484        S490   1.703       .  A
C484        C485   1.394       .  A
C485        C486   1.397       .  A
C485        H494   1.085       .  S
C486        C489   1.360       .  A
S487        C488   1.724       .  A
C488        C489   1.385       .  A
C489        H495   1.085       .  S
S490        C491   1.716   1_545  A
C491        C492   1.385       .  A
C492        H496   1.084       .  S
C497        S503   1.705       .  A
C497        C502   1.388       .  A
C497        C498   1.396       .  A
C498        C499   1.399       .  A
C498        H509   1.084       .  S
C499        C508   1.363       .  A
C499        C500   1.385       .  A
C500        S506   1.723       .  A
C500        C501   1.409       .  A
C501        C502   1.411       .  A
C501        H510   1.083       .  S
C502        C505   1.377       .  A
S503        C504   1.716       .  A
C504        C505   1.390       .  A
C505        H511   1.083       .  S
S506        C507   1.726       .  A
C507        C508   1.388       .  A
C508        H512   1.084       .  S
C513        S519   1.708       .  A
C513        C518   1.387       .  A
C513        C514   1.404       .  A
C514        C515   1.404       .  A
C514        H525   1.083       .  S
C515        C524   1.375       .  A
C515        C516   1.387       .  A
C516        S522   1.707       .  A
C516        C517   1.403       .  A
C517        C518   1.403       .  A
C517        H526   1.083       .  S
C518        C521   1.374       .  A
S519        C520   1.724       .  A
C520        C521   1.388       .  A
C521        H527   1.083       .  S
S522        C523   1.724       .  A
C523        C524   1.387       .  A
C524        H528   1.083       .  S
C529        S535   1.726       .  A
C529        C534   1.384       .  A
C529        C530   1.412       .  A
C530        C531   1.414       .  A
C530        H541   1.083       .  S
C531        C540   1.380       .  A
C531        C532   1.387       .  A
C532        S538   1.699       .  A
C532        C533   1.392       .  A
C533        C534   1.395       .  A
C533        H542   1.084       .  S
C534        C537   1.359       .  A
S535        C536   1.730       .  A
C536        C537   1.386       .  A
C537        H543   1.084       .  S
S538        C539   1.718       .  A
C539        C540   1.395       .  A
C540        H544   1.083       .  S
C545        S551   1.696       .  A
C545        C550   1.387       .  A
C545        C546   1.397       .  A
C546        C547   1.397       .  A
C546        H557   1.084       .  S
C547        C556   1.367   1_565  A
C547        C548   1.386       .  A
C548        S554   1.717   1_565  A
C548        C549   1.410       .  A
C549        C550   1.410       .  A
C549        H558   1.083       .  S
C550        C553   1.382       .  A
S551        C552   1.722       .  A
C552        C553   1.391       .  A
C553        H559   1.083       .  S
S554        C555   1.728       .  A
C555        C556   1.384       .  A
C556        H560   1.084       .  S
C561        S567   1.705       .  A
C561        C566   1.387       .  A
C561        C562   1.402       .  A
C562        C563   1.402       .  A
C562        H573   1.083       .  S
C563        C572   1.373       .  A
C563        C564   1.387       .  A
C564        S570   1.707       .  A
C564        C565   1.404       .  A
C565        C566   1.404       .  A
C565        H574   1.083       .  S
C566        C569   1.375       .  A
S567        C568   1.722       .  A
C568        C569   1.387       .  A
C569        H575   1.083       .  S
S570        C571   1.724       .  A
C571        C572   1.386       .  A
C572        H576   1.083       .  S
C577        S583   1.712       .  A
C577        C582   1.386       .  A
C577        C578   1.405   1_565  A
C578        C579   1.406       .  A
C578        H589   1.083       .  S
C579        C588   1.374       .  A
C579        C580   1.387       .  A
C580        S586   1.708       .  A
C580        C581   1.402   1_545  A
C581        C582   1.403       .  A
C581        H590   1.083       .  S
C582        C585   1.371       .  A
S583        C584   1.725       .  A
C584        C585   1.388       .  A
C585        H591   1.083       .  S
S586        C587   1.723       .  A
C587        C588   1.389       .  A
C588        H592   1.083       .  S
C593        S599   1.716       .  A
C593        C598   1.386       .  A
C593        C594   1.406       .  A
C594        C595   1.407       .  A
C594        H605   1.083       .  S
C595        C604   1.374       .  A
C595        C596   1.388       .  A
C596        S602   1.703       .  A
C596        C597   1.396       .  A
C597        C598   1.398       .  A
C597        H606   1.083       .  S
C598        C601   1.363       .  A
S599        C600   1.725       .  A
C600        C601   1.386       .  A
C601        H607   1.084       .  S
S602        C603   1.718       .  A
C603        C604   1.387       .  A
C604        H608   1.083       .  S
C609        S615   1.715       .  A
C609        C614   1.386       .  A
C609        C610   1.404       .  A
C610        C611   1.406       .  A
C610        H621   1.083       .  S
C611        C620   1.372   1_655  A
C611        C612   1.388       .  A
C612        S618   1.705   1_655  A
C612        C613   1.398       .  A
C613        C614   1.400       .  A
C613        H622   1.084       .  S
C614        C617   1.364       .  A
S615        C616   1.723       .  A
C616        C617   1.387       .  A
C617        H623   1.084       .  S
S618        C619   1.719       .  A
C619        C620   1.385       .  A
C620        H624   1.083       .  S
C625        S631   1.708       .  A
C625        C630   1.387   1_655  A
C625        C626   1.401       .  A
C626        C627   1.403   1_655  A
C626        H637   1.083       .  S
C627        C636   1.370       .  A
C627        C628   1.387       .  A
C628        S634   1.710       .  A
C628        C629   1.403       .  A
C629        C630   1.404       .  A
C629        H638   1.083       .  S
C630        C633   1.372   1_455  A
S631        C632   1.722       .  A
C632        C633   1.388       .  A
C633        H639   1.083       .  S
S634        C635   1.724       .  A
C635        C636   1.388       .  A
C636        H640   1.083       .  S
C641        S647   1.706       .  A
C641        C646   1.388       .  A
C641        C642   1.399       .  A
C642        C643   1.401       .  A
C642        H653   1.084       .  S
C643        C652   1.367       .  A
C643        C644   1.387       .  A
C644        S650   1.711       .  A
C644        C645   1.403       .  A
C645        C646   1.405       .  A
C645        H654   1.084       .  S
C646        C649   1.372   1_455  A
S647        C648   1.719   1_455  A
C648        C649   1.385       .  A
C649        H655   1.084       .  S
S650        C651   1.723       .  A
C651        C652   1.386       .  A
C652        H656   1.084       .  S
C657        S663   1.718       .  A
C657        C662   1.386       .  A
C657        C658   1.408       .  A
C658        C659   1.409       .  A
C658        H669   1.086       .  S
C659        C668   1.377       .  A
C659        C660   1.388       .  A
C660        S666   1.702       .  A
C660        C661   1.397       .  A
C661        C662   1.398       .  A
C661        H670   1.086       .  S
C662        C665   1.364       .  A
S663        C664   1.726       .  A
C664        C665   1.386       .  A
C665        H671   1.086       .  S
S666        C667   1.718       .  A
C667        C668   1.389       .  A
C668        H672   1.085       .  S
C673        S679   1.703       .  A
C673        C678   1.387       .  A
C673        C674   1.396       .  A
C674        C675   1.398       .  A
C674        H685   1.085       .  S
C675        C684   1.362       .  A
C675        C676   1.386       .  A
C676        S682   1.720       .  A
C676        C677   1.407       .  A
C677        C678   1.409       .  A
C677        H686   1.084   1_545  S
C678        C681   1.376   1_545  A
S679        C680   1.721   1_545  A
C680        C681   1.390       .  A
C681        H687   1.084       .  S
S682        C683   1.726       .  A
C683        C684   1.386       .  A
C684        H688   1.085       .  S
C689        S695   1.702       .  A
C689        C694   1.387       .  A
C689        C690   1.395       .  A
C690        C691   1.398       .  A
C690        H701   1.085       .  S
C691        C700   1.362       .  A
C691        C692   1.385       .  A
C692        S698   1.720       .  A
C692        C693   1.408       .  A
C693        C694   1.410       .  A
C693        H702   1.084       .  S
C694        C697   1.377       .  A
S695        C696   1.720       .  A
C696        C697   1.392       .  A
C697        H703   1.084       .  S
S698        C699   1.727       .  A
C699        C700   1.386       .  A
C700        H704   1.084       .  S
C705        S711   1.712       .  A
C705        C710   1.386       .  A
C705        C706   1.402       .  A
C706        C707   1.404   1_655  A
C706        H717   1.083       .  S
C707        C716   1.369       .  A
C707        C708   1.386       .  A
C708        S714   1.711       .  A
C708        C709   1.401       .  A
C709        C710   1.404   1_455  A
C709        H718   1.083       .  S
C710        C713   1.368       .  A
S711        C712   1.723       .  A
C712        C713   1.389       .  A
C713        H719   1.083       .  S
S714        C715   1.722       .  A
C715        C716   1.389       .  A
C716        H720   1.083       .  S
C721        S727   1.713       .  A
C721        C726   1.386       .  A
C721        C722   1.405       .  A
C722        C723   1.406       .  A
C722        H733   1.083       .  S
C723        C732   1.375       .  A
C723        C724   1.386       .  A
C724        S730   1.713       .  A
C724        C725   1.405       .  A
C725        C726   1.406       .  A
C725        H734   1.083       .  S
C726        C729   1.375       .  A
S727        C728   1.725       .  A
C728        C729   1.390       .  A
C729        H735   1.083       .  S
S730        C731   1.724       .  A
C731        C732   1.389       .  A
C732        H736   1.083       .  S
C737        S743   1.721       .  A
C737        C742   1.385       .  A
C737        C738   1.410       .  A
C738        C739   1.411       .  A
C738        H749   1.084       .  S
C739        C748   1.380   1_455  A
C739        C740   1.388   1_554  A
C740        S746   1.699       .  A
C740        C741   1.395       .  A
C741        C742   1.396   1_556  A
C741        H750   1.085       .  S
C742        C745   1.362       .  A
S743        C744   1.728       .  A
C744        C745   1.385       .  A
C745        H751   1.085   1_554  S
S746        C747   1.719   1_455  A
C747        C748   1.391   1_556  A
C748        H752   1.083       .  S
C753        S759   1.717       .  A
C753        C758   1.386       .  A
C753        C754   1.407       .  A
C754        C755   1.408       .  A
C754        H765   1.083       .  S
C755        C764   1.375       .  A
C755        C756   1.387   1_556  A
C756        S762   1.705       .  A
C756        C757   1.399       .  A
C757        C758   1.400   1_554  A
C757        H766   1.084       .  S
C758        C761   1.366       .  A
S759        C760   1.725       .  A
C760        C761   1.387       .  A
C761        H767   1.084   1_556  S
S762        C763   1.721       .  A
C763        C764   1.389   1_554  A
C764        H768   1.083       .  S
C769        S775   1.692       .  A
C769        C774   1.388       .  A
C769        C770   1.395   1_554  A
C770        C771   1.394       .  A
C770        H781   1.084       .  S
C771        C780   1.365       .  A
C771        C772   1.386   1_556  A
C772        S778   1.716       .  A
C772        C773   1.411       .  A
C773        C774   1.410       .  A
C773        H782   1.083       .  S
C774        C777   1.384       .  A
S775        C776   1.723       .  A
C776        C777   1.391       .  A
C777        H783   1.083       .  S
S778        C779   1.729   1_554  A
C779        C780   1.383       .  A
C780        H784   1.084       .  S
C785        S791   1.714   1_545  A
C785        C790   1.386   1_556  A
C785        C786   1.405       .  A
C786        C787   1.406       .  A
C786        H797   1.085       .  S
C787        C796   1.374       .  A
C787        C788   1.388       .  A
C788        S794   1.698       .  A
C788        C789   1.395   1_556  A
C789        C790   1.396       .  A
C789        H798   1.085       .  S
C790        C793   1.362   1_545  A
S791        C792   1.725   1_556  A
C792        C793   1.383       .  A
C793        H799   1.085       .  S
S794        C795   1.717       .  A
C795        C796   1.386       .  A
C796        H800   1.084       .  S
C801        S807   1.709       .  A
C801        C806   1.387       .  A
C801        C802   1.403       .  A
C802        C803   1.404       .  A
C802        H813   1.083       .  S
C803        C812   1.373       .  A
C803        C804   1.386       .  A
C804        S810   1.714       .  A
C804        C805   1.407       .  A
C805        C806   1.407       .  A
C805        H814   1.083       .  S
C806        C809   1.377       .  A
S807        C808   1.724       .  A
C808        C809   1.390       .  A
C809        H815   1.083       .  S
S810        C811   1.725       .  A
C811        C812   1.388       .  A
C812        H816   1.083       .  S
C817        S823   1.710       .  A
C817        C822   1.386       .  A
C817        C818   1.408   1_545  A
C818        C819   1.407       .  A
C818        H829   1.083       .  S
C819        C828   1.381       .  A
C819        C820   1.386       .  A
C820        S826   1.707       .  A
C820        C821   1.406   1_565  A
C821        C822   1.405       .  A
C821        H830   1.083       .  S
C822        C825   1.379       .  A
S823        C824   1.729       .  A
C824        C825   1.390       .  A
C825        H831   1.083       .  S
S826        C827   1.727       .  A
C827        C828   1.391       .  A
C828        H832   1.083       .  S
C833        S839   1.719       .  A
C833        C838   1.386       .  A
C833        C834   1.407       .  A
C834        C835   1.409       .  A
C834        H845   1.084       .  S
C835        C844   1.375       .  A
C835        C836   1.388   1_556  A
C836        S842   1.701       .  A
C836        C837   1.395       .  A
C837        C838   1.397   1_554  A
C837        H846   1.085       .  S
C838        C841   1.362       .  A
S839        C840   1.726       .  A
C840        C841   1.385       .  A
C841        H847   1.084   1_556  S
S842        C843   1.719       .  A
C843        C844   1.389   1_554  A
C844        H848   1.084       .  S
C849        S855   1.719   1_655  A
C849        C854   1.386   1_554  A
C849        C850   1.412       .  A
C850        C851   1.412       .  A
C850        H861   1.085       .  S
C851        C860   1.383       .  A
C851        C852   1.388       .  A
C852        S858   1.690       .  A
C852        C853   1.391   1_554  A
C853        C854   1.392       .  A
C853        H862   1.087       .  S
C854        C857   1.360   1_655  A
S855        C856   1.729   1_554  A
C856        C857   1.382       .  A
C857        H863   1.086       .  S
S858        C859   1.720       .  A
C859        C860   1.391       .  A
C860        H864   1.084       .  S
C865        S871   1.720       .  A
C865        C870   1.386       .  A
C865        C866   1.410       .  A
C866        C867   1.411       .  A
C866        H877   1.083       .  S
C867        C876   1.379   1_565  A
C867        C868   1.388   1_556  A
C868        S874   1.691       .  A
C868        C869   1.389       .  A
C869        C870   1.391   1_554  A
C869        H878   1.084       .  S
C870        C873   1.355       .  A
S871        C872   1.727       .  A
C872        C873   1.380       .  A
C873        H879   1.085   1_556  S
S874        C875   1.717   1_565  A
C875        C876   1.391   1_554  A
C876        H880   1.083       .  S
C881        S887   1.718       .  A
C881        C886   1.386   1_554  A
C881        C882   1.412       .  A
C882        C883   1.411       .  A
C882        H893   1.084       .  S
C883        C892   1.383       .  A
C883        C884   1.388       .  A
C884        S890   1.695   1_554  A
C884        C885   1.395   1_554  A
C885        C886   1.395       .  A
C885        H894   1.084       .  S
C886        C889   1.365       .  A
S887        C888   1.729   1_554  A
C888        C889   1.384       .  A
C889        H895   1.084       .  S
S890        C891   1.720   1_556  A
C891        C892   1.392       .  A
C892        H896   1.083       .  S
C897        S903   1.711       .  A
C897        C902   1.387       .  A
C897        C898   1.407       .  A
C898        C899   1.406       .  A
C898        H909   1.083       .  S
C899        C908   1.378       .  A
C899        C900   1.387       .  A
C900        S906   1.704       .  A
C900        C901   1.402       .  A
C901        C902   1.401       .  A
C901        H910   1.083       .  S
C902        C905   1.373       .  A
S903        C904   1.725       .  A
C904        C905   1.386       .  A
C905        H911   1.083       .  S
S906        C907   1.724       .  A
C907        C908   1.390       .  A
C908        H912   1.083       .  S
C913        S919   1.707       .  A
C913        C918   1.387       .  A
C913        C914   1.403       .  A
C914        C915   1.403       .  A
C914        H925   1.083       .  S
C915        C924   1.374       .  A
C915        C916   1.387       .  A
C916        S922   1.711       .  A
C916        C917   1.407       .  A
C917        C918   1.406       .  A
C917        H926   1.083       .  S
C918        C921   1.378       .  A
S919        C920   1.724       .  A
C920        C921   1.390       .  A
C921        H927   1.083       .  S
S922        C923   1.726       .  A
C923        C924   1.387       .  A
C924        H928   1.083       .  S
C929        S935   1.709       .  A
C929        C934   1.387       .  A
C929        C930   1.404       .  A
C930        C931   1.405       .  A
C930        H941   1.083       .  S
C931        C940   1.375       .  A
C931        C932   1.387       .  A
C932        S938   1.704       .  A
C932        C933   1.401       .  A
C933        C934   1.401       .  A
C933        H942   1.083       .  S
C934        C937   1.371       .  A
S935        C936   1.725       .  A
C936        C937   1.386       .  A
C937        H943   1.083       .  S
S938        C939   1.724       .  A
C939        C940   1.388       .  A
C940        H944   1.083       .  S
C945        S951   1.722       .  A
C945        C950   1.385       .  A
C945        C946   1.413       .  A
C946        C947   1.413       .  A
C946        H957   1.083       .  S
C947        C956   1.384       .  A
C947        C948   1.387       .  A
C948        S954   1.702       .  A
C948        C949   1.399       .  A
C949        C950   1.399       .  A
C949        H958   1.083       .  S
C950        C953   1.368       .  A
S951        C952   1.729       .  A
C952        C953   1.387       .  A
C953        H959   1.083       .  S
S954        C955   1.722       .  A
C955        C956   1.394       .  A
C956        H960   1.083       .  S
C961        S967   1.711       .  A
C961        C966   1.387       .  A
C961        C962   1.400       .  A
C962        C963   1.403       .  A
C962        H973   1.085       .  S
C963        C972   1.368   1_655  A
C963        C964   1.388       .  A
C964        S970   1.712   1_655  A
C964        C965   1.401       .  A
C965        C966   1.404       .  A
C965        H974   1.085       .  S
C966        C969   1.368       .  A
S967        C968   1.720       .  A
C968        C969   1.388       .  A
C969        H975   1.085       .  S
S970        C971   1.719       .  A
C971        C972   1.384       .  A
C972        H976   1.085       .  S
C977        S983   1.696       .  A
C977        C982   1.388       .  A
C977        C978   1.396       .  A
C978        C979   1.396       .  A
C978        H989   1.084       .  S
C979        C988   1.366       .  A
C979        C980   1.387       .  A
C980        S986   1.714       .  A
C980        C981   1.408       .  A
C981        C982   1.408       .  A
C981        H990   1.084       .  S
C982        C985   1.380       .  A
S983        C984   1.723       .  A
C984        C985   1.390       .  A
C985        H991   1.083       .  S
S986        C987   1.724       .  A
C987        C988   1.381       .  A
C988        H992   1.084       .  S
C993        S999   1.690       .  A
C993        C998   1.388       .  A
C993        C994   1.393       .  A
C994        C995   1.393       .  A
C994       H1005   1.084       .  S
C995       C1004   1.362       .  A
C995        C996   1.386       .  A
C996       S1002   1.716       .  A
C996        C997   1.410       .  A
C997        C998   1.410       .  A
C997       H1006   1.083       .  S
C998       C1001   1.382       .  A
S999       C1000   1.723       .  A
C1000      C1001   1.391       .  A
C1001      H1007   1.083       .  S
S1002      C1003   1.728       .  A
C1003      C1004   1.382       .  A
C1004      H1008   1.084       .  S
C1009      S1015   1.700   1_545  A
C1009      C1014   1.387   1_545  A
C1009      C1010   1.392       .  A
C1010      C1011   1.396       .  A
C1010      H1021   1.084       .  S
C1011      C1020   1.357       .  A
C1011      C1012   1.385       .  A
C1012      S1018   1.721       .  A
C1012      C1013   1.407       .  A
C1013      C1014   1.409   1_545  A
C1013      H1022   1.083       .  S
C1014      C1017   1.372       .  A
S1015      C1016   1.718       .  A
C1016      C1017   1.390       .  A
C1017      H1023   1.083       .  S
S1018      C1019   1.725       .  A
C1019      C1020   1.385       .  A
C1020      H1024   1.084       .  S
C1025      S1031   1.704       .  A
C1025      C1030   1.387       .  A
C1025      C1026   1.400       .  A
C1026      C1027   1.401       .  A
C1026      H1037   1.083       .  S
C1027      C1036   1.369       .  A
C1027      C1028   1.386       .  A
C1028      S1034   1.718       .  A
C1028      C1029   1.410       .  A
C1029      C1030   1.410       .  A
C1029      H1038   1.082       .  S
C1030      C1033   1.381       .  A
S1031      C1032   1.724       .  A
C1032      C1033   1.392       .  A
C1033      H1039   1.082       .  S
S1034      C1035   1.727       .  A
C1035      C1036   1.386       .  A
C1036      H1040   1.083       .  S
C1041      S1047   1.710       .  A
C1041      C1046   1.387       .  A
C1041      C1042   1.405   1_545  A
C1042      C1043   1.405   1_655  A
C1042      H1053   1.083       .  S
C1043      C1052   1.376       .  A
C1043      C1044   1.387       .  A
C1044      S1050   1.708       .  A
C1044      C1045   1.403   1_565  A
C1045      C1046   1.404   1_455  A
C1045      H1054   1.083       .  S
C1046      C1049   1.374       .  A
S1047      C1048   1.725       .  A
C1048      C1049   1.389       .  A
C1049      H1055   1.083       .  S
S1050      C1051   1.723       .  A
C1051      C1052   1.388       .  A
C1052      H1056   1.083       .  S
C1057      S1063   1.724       .  A
C1057      C1062   1.385       .  A
C1057      C1058   1.410       .  A
C1058      C1059   1.413       .  A
C1058      H1069   1.084       .  S
C1059      C1068   1.378   1_565  A
C1059      C1060   1.387       .  A
C1060      S1066   1.697       .  A
C1060      C1061   1.391       .  A
C1061      C1062   1.394       .  A
C1061      H1070   1.084       .  S
C1062      C1065   1.357       .  A
S1063      C1064   1.728       .  A
C1064      C1065   1.384       .  A
C1065      H1071   1.084       .  S
S1066      C1067   1.718   1_565  A
C1067      C1068   1.393       .  A
C1068      H1072   1.083       .  S
C1073      S1079   1.723       .  A
C1073      C1078   1.385       .  A
C1073      C1074   1.411       .  A
C1074      C1075   1.412       .  A
C1074      H1085   1.083       .  S
C1075      C1084   1.379       .  A
C1075      C1076   1.387       .  A
C1076      S1082   1.699       .  A
C1076      C1077   1.394       .  A
C1077      C1078   1.396       .  A
C1077      H1086   1.083       .  S
C1078      C1081   1.362       .  A
S1079      C1080   1.728       .  A
C1080      C1081   1.384       .  A
C1081      H1087   1.084       .  S
S1082      C1083   1.718       .  A
C1083      C1084   1.393       .  A
C1084      H1088   1.083       .  S
C1089      S1095   1.712       .  A
C1089      C1094   1.387       .  A
C1089      C1090   1.402       .  A
C1090      C1091   1.404       .  A
C1090      H1101   1.085       .  S
C1091      C1100   1.370   1_455  A
C1091      C1092   1.388       .  A
C1092      S1098   1.707       .  A
C1092      C1093   1.398       .  A
C1093      C1094   1.401       .  A
C1093      H1102   1.085       .  S
C1094      C1097   1.365       .  A
S1095      C1096   1.722       .  A
C1096      C1097   1.386       .  A
C1097      H1103   1.085       .  S
S1098      C1099   1.717   1_455  A
C1099      C1100   1.384       .  A
C1100      H1104   1.084       .  S
C1105      S1111   1.719       .  A
C1105      C1110   1.386       .  A
C1105      C1106   1.407       .  A
C1106      C1107   1.409       .  A
C1106      H1117   1.082       .  S
C1107      C1116   1.375       .  A
C1107      C1108   1.388       .  A
C1108      S1114   1.703       .  A
C1108      C1109   1.395       .  A
C1109      C1110   1.397       .  A
C1109      H1118   1.083       .  S
C1110      C1113   1.361       .  A
S1111      C1112   1.726       .  A
C1112      C1113   1.386       .  A
C1113      H1119   1.083       .  S
S1114      C1115   1.715       .  A
C1115      C1116   1.388       .  A
C1116      H1120   1.083       .  S
