geometry optimzed in LAMMPS
_audit_creation_date              2020-12-01 
_audit_creation_method            'lammps2cif' 
_symmetry_space_group_name_H-M    'P1' 
_symmetry_Int_Tables_number       1 
_symmetry_cell_setting            triclinic 
loop_ 
_symmetry_equiv_pos_as_xyz 
  x,y,z 
_cell_length_a                    32.95396695 
_cell_length_b                    33.00331309307383 
_cell_length_c                    68.23696489844035 
_cell_angle_alpha                 90.16196472746415 
_cell_angle_beta                  90.01850506798489 
_cell_angle_gamma                 89.99290450851703 
loop_ 
_atom_site_label 
_atom_site_type_symbol 
_atom_site_fract_x 
_atom_site_fract_y 
_atom_site_fract_z 
_atom_site_charge 
Zn1        Zn  0.13170387  0.89032449  0.55832943     1.49700
Zn2        Zn  0.11221963  0.94118028  0.59720896     1.49400
Zn3        Zn  0.13330585  0.98914260  0.55883005     1.49100
Zn4        Zn  0.05379262  0.93516383  0.56276248     1.49500
O5          O  0.10951079  0.93967336  0.56935462    -1.83400
O6          O  0.16540063  0.86458238  0.57881151    -0.74000
O7          O  0.14426314  0.98737212  0.60737980    -0.73800
O8          O  0.18035596  0.97080020  0.54131321    -0.73300
O9          O  0.14014700  0.89158786  0.60625071    -0.74000
O10         O  0.16900961  0.90484919  0.53608689    -0.73600
O11         O  0.15519184  0.02766897  0.58202248    -0.74200
O12         O  0.04606142  0.96248051  0.53791719    -0.73600
O13         O  0.05737284  0.95053266  0.60889217    -0.74300
O14         O  0.09092138  0.01316975  0.53914734    -0.73700
O15         O  0.02055060  0.96354239  0.58241845    -0.74200
O16         O  0.03291369  0.87762921  0.56054755    -0.74100
O17         O  0.08913474  0.84584692  0.55200875    -0.73900
C18         C  0.16244962  0.86589111  0.59737026     0.77900
C19         C  0.15802394  0.02027131  0.60053129     0.78400
C20         C  0.18843978  0.93749098  0.53244509     0.77400
C21         C  0.06060993  0.99508235  0.53106894     0.77700
C22         C  0.02500648  0.96354895  0.60088456     0.78900
C23         C  0.05098800  0.84525254  0.55537039     0.77900
Zn24       Zn  0.33059338  0.16217054  0.66048030     1.49700
Zn25       Zn  0.28288746  0.14113208  0.69909445     1.49400
Zn26       Zn  0.38346830  0.13923321  0.69770922     1.49100
Zn27       Zn  0.33779270  0.21896315  0.69612806     1.49500
O28         O  0.33326451  0.16353329  0.68842631    -1.83400
O29         O  0.28462314  0.12972796  0.65044829    -0.74000
O30         O  0.30092875  0.09519180  0.71724442    -0.73800
O31         O  0.40943933  0.10879427  0.67562026    -0.73300
O32         O  0.24487122  0.11808428  0.67599254    -0.74000
O33         O  0.38042476  0.13717068  0.64958590    -0.73600
O34         O  0.36869179  0.09903395  0.71890375    -0.74200
O35         O  0.39530790  0.23849685  0.69886665    -0.73600
O36         O  0.25713403  0.18479832  0.71786140    -0.74300
O37         O  0.42797933  0.18149368  0.70508321    -0.73700
O38         O  0.30973494  0.22685695  0.72105365    -0.74200
O39         O  0.31104386  0.25433232  0.67666244    -0.74100
O40         O  0.31996578  0.21707723  0.64991666    -0.73900
C41         C  0.25203544  0.11542674  0.65744674     0.77900
C42         C  0.33499019  0.08327355  0.72425114     0.78400
C43         C  0.40732788  0.11446591  0.65720415     0.77400
C44         C  0.42803603  0.22002994  0.70302818     0.77700
C45         C  0.27524638  0.21425769  0.72661332     0.78900
C46         C  0.30942523  0.25000668  0.65819699     0.77900
Zn47       Zn  0.40996815  0.39982470  0.59332874     1.49700
Zn48       Zn  0.40007608  0.41075153  0.54803199     1.49400
Zn49       Zn  0.33044424  0.43892724  0.57688286     1.49100
Zn50       Zn  0.41152593  0.48983329  0.57693168     1.49500
O51         O  0.38868363  0.43499845  0.57349480    -1.83400
O52         O  0.44231561  0.35279713  0.58194950    -0.74000
O53         O  0.34728567  0.40605689  0.53195974    -0.73800
O54         O  0.30875214  0.39383174  0.59308822    -0.73300
O55         O  0.43272371  0.35723220  0.54984368    -0.74000
O56         O  0.36514881  0.37698818  0.60901905    -0.73600
O57         O  0.30149775  0.43578829  0.55120502    -0.74200
O58         O  0.37102193  0.52784587  0.59188689    -0.73600
O59         O  0.43671382  0.44914051  0.53413422    -0.74300
O60         O  0.31641967  0.48855208  0.59253318    -0.73700
O61         O  0.43745982  0.50755548  0.55073789    -0.74200
O62         O  0.45789818  0.48847519  0.59603879    -0.74100
O63         O  0.44564171  0.43047543  0.61142708    -0.73900
C64         C  0.44834162  0.33937873  0.56464599     0.77900
C65         C  0.31127582  0.41936391  0.53496474     0.78400
C66         C  0.32701332  0.37486773  0.60658727     0.77400
C67         C  0.33495836  0.52052996  0.59794860     0.77700
C68         C  0.44854696  0.48565036  0.53609064     0.78900
C69         C  0.46431328  0.46401156  0.61004119     0.77900
Zn70       Zn  0.16828609  0.72260585  0.68950777     1.49700
Zn71       Zn  0.16615836  0.65576889  0.66051373     1.49400
Zn72       Zn  0.21966731  0.64513735  0.69866197     1.49100
Zn73       Zn  0.12014345  0.64944663  0.70158128     1.49500
O74         O  0.16916811  0.66584850  0.68784023    -1.83400
O75         O  0.19635349  0.74709243  0.66714768    -0.74000
O76         O  0.21160254  0.62243428  0.65180478    -0.73800
O77         O  0.24265699  0.69078878  0.71715999    -0.73300
O78         O  0.17059297  0.70638000  0.64456137    -0.74000
O79         O  0.19630984  0.73925893  0.71324670    -0.73600
O80         O  0.25743040  0.62066258  0.67560517    -0.74200
O81         O  0.13643899  0.61142375  0.72348188    -0.73600
O82         O  0.11667498  0.62501198  0.65461126    -0.74300
O83         O  0.20210679  0.59959425  0.71714769    -0.73700
O84         O  0.08736025  0.61492405  0.68356967    -0.74200
O85         O  0.08042230  0.69737541  0.70765864    -0.74100
O86         O  0.11139826  0.74402765  0.68982251    -0.73900
C87         C  0.18803349  0.73930725  0.64940270     0.77900
C88         C  0.24624560  0.61178328  0.65798252     0.78400
C89         C  0.22674594  0.72488300  0.72224453     0.77400
C90         C  0.16920841  0.59141117  0.72635314     0.77700
C91         C  0.08888795  0.60965378  0.66514185     0.78900
C92         C  0.08002044  0.73162209  0.69884894     0.77900
Zn93       Zn  0.63709270  0.15715536  0.55726528     1.49700
Zn94       Zn  0.64062595  0.05826608  0.55570883     1.49400
Zn95       Zn  0.62369344  0.10213565  0.59612981     1.49100
Zn96       Zn  0.56037981  0.10771990  0.56499909     1.49500
O97         O  0.61740548  0.10590235  0.56831641    -1.83400
O98         O  0.67827593  0.14560523  0.53551130    -0.74000
O99         O  0.66389912  0.01740137  0.57690726    -0.73800
O100        O  0.65694148  0.14802072  0.60489904    -0.73300
O101        O  0.68667409  0.07865034  0.53835371    -0.74000
O102        O  0.66930517  0.18425831  0.57810812    -0.73600
O103        O  0.65145009  0.05191572  0.60428027    -0.93400
O104        O  0.53034715  0.08098418  0.58652941    -0.73600
O105        O  0.59716221  0.03547116  0.53647599    -0.74300
O106        O  0.57074942  0.10143745  0.61044495    -0.73700
O107        O  0.54727670  0.08037220  0.54056838    -0.74200
O108        O  0.53947769  0.16465385  0.56422233    -0.74100
O109        O  0.59062442  0.19916420  0.55144623    -0.73900
C110        C  0.69687444  0.11281063  0.53099086     0.77900
C111        C  0.66569501  0.02097042  0.59566734     0.78400
C112        C  0.67325124  0.17811007  0.59638359     0.77400
C113        C  0.53672945  0.08791717  0.60456476     0.77700
C114        C  0.56313978  0.05107054  0.53125437     0.78900
C115        C  0.55397119  0.19765578  0.55770307     0.77900
Zn116      Zn  0.83223727  0.94459189  0.67929942     1.49700
Zn117      Zn  0.87213469  0.86674715  0.66312601     1.49400
Zn118      Zn  0.86105290  0.87644791  0.70827602     1.49100
Zn119      Zn  0.78229331  0.86381927  0.68005485     1.49500
O120        O  0.83682144  0.88695327  0.68305183    -1.83400
O121        O  0.87990560  0.96711471  0.66524543    -0.74000
O122        O  0.92017572  0.83612578  0.67444717    -0.73800
O123        O  0.86270841  0.92910899  0.72401055    -0.73300
O124        O  0.89382008  0.91215516  0.64758523    -0.74000
O125        O  0.83017235  0.97361223  0.70510621    -0.73600
O126        O  0.91611093  0.84676413  0.70649893    -0.74200
O127        O  0.76534335  0.83681162  0.70606464    -0.73600
O128        O  0.84236380  0.83013926  0.64516545    -0.74300
O129        O  0.82422605  0.83839595  0.72216475    -0.73700
O130        O  0.78469978  0.81762009  0.66097153    -0.74200
O131        O  0.74368021  0.90348060  0.66510705    -0.74100
O132        O  0.78594668  0.95520732  0.66076897    -0.73900
C133        C  0.89763114  0.94978016  0.65105016     0.77900
C134        C  0.93426478  0.83135612  0.69169766     0.78400
C135        C  0.84709765  0.96416508  0.72128521     0.77400
C136        C  0.78790375  0.82572963  0.72043650     0.77700
C137        C  0.80922086  0.81088176  0.64697672     0.78900
C138        C  0.75335885  0.93650789  0.65641400     0.77900
Zn139      Zn  0.87442255  0.65214119  0.55972419     1.49700
Zn140      Zn  0.88176305  0.60370510  0.59948636     1.49400
Zn141      Zn  0.87598456  0.55236659  0.56072462     1.49100
Zn142      Zn  0.95310611  0.60722351  0.56970428     1.49500
O143        O  0.89528614  0.60348298  0.57215107    -1.83400
O144        O  0.83913578  0.68292696  0.57854196    -0.74000
O145        O  0.85118917  0.55569969  0.60784200    -0.73800
O146        O  0.83005126  0.56851455  0.54231092    -0.73300
O147        O  0.84980676  0.65193396  0.60689020    -0.74000
O148        O  0.83834310  0.63498703  0.53744868    -0.73600
O149        O  0.85335170  0.51253353  0.58290672    -0.74200
O150        O  0.97033545  0.57536958  0.54659636    -0.73600
O151        O  0.93095923  0.59938961  0.61572848    -0.74300
O152        O  0.92158651  0.52948224  0.54226971    -0.73700
O153        O  0.97860987  0.58498602  0.59381251    -0.74200
O154        O  0.97337996  0.66472577  0.56558441    -0.74100
O155        O  0.91896022  0.69377244  0.55275736    -0.73900
C156        C  0.83417659  0.68046555  0.59697957     0.77900
C157        C  0.84433377  0.52079068  0.60085433     0.78400
C158        C  0.82059407  0.60146626  0.53356094     0.77400
C159        C  0.95582086  0.54515700  0.53739074     0.77700
C160        C  0.96648936  0.58737379  0.61147985     0.78900
C161        C  0.95631835  0.69535724  0.55778716     0.77900
Zn162      Zn  0.71917407  0.39803809  0.69749941     1.49700
Zn163      Zn  0.66408940  0.32230273  0.69076321     1.49400
Zn164      Zn  0.61893357  0.40025194  0.69879406     1.49100
Zn165      Zn  0.66694694  0.38757050  0.65894005     1.49500
O166        O  0.66761992  0.37898794  0.68665683    -1.83400
O167        O  0.74299845  0.35322193  0.71607508    -0.74000
O168        O  0.60716279  0.30124352  0.69357535    -0.73800
O169        O  0.63670060  0.43618104  0.72121058    -0.73300
O170        O  0.69316207  0.30792269  0.71467660    -0.74000
O171        O  0.70337092  0.44352361  0.71610457    -0.73600
O172        O  0.57662208  0.35558121  0.70558476    -0.74200
O173        O  0.61928167  0.42049936  0.65107013    -0.73600
O174        O  0.69000307  0.29432412  0.66870879    -0.74300
O175        O  0.58983583  0.43574498  0.67948840    -0.73700
O176        O  0.67082393  0.33518683  0.64466709    -0.74200
O177        O  0.71537910  0.41653663  0.64960258    -0.74100
O178        O  0.75793123  0.42019750  0.67471738    -0.73900
C179        C  0.72540799  0.32117571  0.72254174     0.77900
C180        C  0.57584662  0.31800187  0.70086342     0.78400
C181        C  0.67067757  0.45320960  0.72510481     0.77400
C182        C  0.59213461  0.43885269  0.66092709     0.77700
C183        C  0.68589634  0.30190324  0.65061047     0.78900
C184        C  0.74977773  0.42614493  0.65646771     0.77900
Zn185      Zn  0.79191025  0.63574371  0.19926263     1.49700
Zn186      Zn  0.89225252  0.63645594  0.20011154     1.49400
Zn187      Zn  0.84172041  0.64517116  0.16038360     1.49100
Zn188      Zn  0.84611046  0.71367568  0.19085637     1.49500
O189        O  0.84259461  0.65631897  0.18792040    -1.83400
O190        O  0.80935566  0.58956190  0.21732480    -0.74000
O191        O  0.92177104  0.60151706  0.18092167    -0.73800
O192        O  0.79219865  0.61743198  0.15127560    -0.73300
O193        O  0.87603403  0.59882879  0.22196259    -0.74000
O194        O  0.75093084  0.61469488  0.17685620    -0.73600
O195        O  0.88854311  0.61133382  0.15298387    -0.74200
O196        O  0.82174416  0.74030910  0.16786325    -0.73600
O197        O  0.93431664  0.68168047  0.20714715    -0.74300
O198        O  0.83935377  0.69575259  0.14503445    -0.73700
O199        O  0.90314141  0.73529763  0.19490062    -0.74200
O200        O  0.81460060  0.72945717  0.21368861    -0.74100
O201        O  0.76928363  0.68040154  0.21810927    -0.73900
C202        C  0.84284967  0.58038181  0.22579492     0.77900
C203        C  0.91747535  0.59554657  0.16263025     0.78400
C204        C  0.75782695  0.60895309  0.15845539     0.77400
C205        C  0.82538521  0.73016897  0.15000510     0.77700
C206        C  0.93457286  0.71925666  0.20247847     0.78900
C207        C  0.78442742  0.71495865  0.22280284     0.77900
Zn208      Zn  0.62865988  0.43430573  0.09747072     1.49700
Zn209      Zn  0.63642762  0.48740497  0.05941103     1.49400
Zn210      Zn  0.63643588  0.38696788  0.05699293     1.49100
Zn211      Zn  0.56006344  0.43365689  0.06890310     1.49500
O212        O  0.61742600  0.43603212  0.07018051    -1.83400
O213        O  0.65545554  0.48316641  0.10724861    -0.74000
O214        O  0.68108995  0.47173695  0.03973073    -0.73800
O215        O  0.67275434  0.35570627  0.07554321    -0.73300
O216        O  0.65833122  0.52651542  0.08258078    -0.74000
O217        O  0.66346804  0.38835687  0.10369322    -0.73600
O218        O  0.67192250  0.40533432  0.03435685    -0.74200
O219        O  0.53997581  0.37644456  0.06662595    -0.73600
O220        O  0.58957936  0.51019812  0.04192145    -0.74300
O221        O  0.58965460  0.34590839  0.05043158    -0.73700
O222        O  0.54148925  0.46369553  0.04615653    -0.74200
O223        O  0.53508787  0.45848296  0.09236518    -0.74100
O224        O  0.57876924  0.43238463  0.11339640    -0.73900
C225        C  0.66415375  0.51800187  0.10082560     0.77900
C226        C  0.68949498  0.43898390  0.03037884     0.78400
C227        C  0.67900146  0.35958621  0.09388167     0.77400
C228        C  0.55395418  0.34530982  0.05788006     0.77700
C229        C  0.55512887  0.49456499  0.03732412     0.78900
C230        C  0.54492357  0.44904641  0.10972804     0.77900
Zn231      Zn  0.92049159  0.89847927  0.09105658     1.49700
Zn232      Zn  0.83685990  0.93610626  0.07816480     1.49400
Zn233      Zn  0.91589438  0.98833889  0.07661297     1.49100
Zn234      Zn  0.90398999  0.90892771  0.04804337     1.49500
O235        O  0.89432741  0.93378985  0.07314807    -1.83400
O236        O  0.87885507  0.86260945  0.10193153    -0.74000
O237        O  0.82492358  0.98238446  0.09672005    -0.73800
O238        O  0.96220604  0.98622624  0.09557539    -0.73300
O239        O  0.81910048  0.88598297  0.09167189    -0.74000
O240        O  0.94798181  0.92982225  0.11196879    -0.73600
O241        O  0.87537963  0.02592651  0.09204878    -0.74200
O242        O  0.94256619  0.94619637  0.03445770    -0.73600
O243        O  0.80596615  0.93659560  0.05267895    -0.74300
O244        O  0.94262722  0.00525433  0.05061704    -0.73700
O245        O  0.85097874  0.90750088  0.03268330    -0.74200
O246        O  0.93220704  0.85259654  0.04960441    -0.74100
O247        O  0.96143978  0.86043235  0.07857564    -0.73900
C248        C  0.84054043  0.85989461  0.10049890     0.77900
C249        C  0.84259943  0.01568615  0.10092534     0.78400
C250        C  0.96746023  0.96282127  0.11010660     0.77400
C251        C  0.95460326  0.98272532  0.03634461     0.77700
C252        C  0.81533557  0.92117149  0.03609336     0.78900
C253        C  0.95786420  0.84105636  0.06250742     0.77900
Zn254      Zn  0.72422364  0.14485293  0.19916451     1.49700
Zn255      Zn  0.67912509  0.15113160  0.15848791     1.49400
Zn256      Zn  0.62513029  0.13944339  0.19653582     1.49100
Zn257      Zn  0.66788062  0.22117418  0.18931460     1.49500
O258        O  0.67444659  0.16342551  0.18608171    -1.83400
O259        O  0.76658740  0.12083463  0.17857665    -0.74000
O260        O  0.63041456  0.12194319  0.14842884    -0.73800
O261        O  0.63970127  0.10182451  0.21867327    -0.73300
O262        O  0.72646106  0.11672270  0.15243756    -0.74000
O263        O  0.70724342  0.09868558  0.21719779    -0.73600
O264        O  0.59911350  0.10513284  0.17605243    -0.74200
O265        O  0.60909420  0.23853626  0.19304332    -0.73600
O266        O  0.68957649  0.20119147  0.14329602    -0.74300
O267        O  0.58015675  0.18132984  0.20271996    -0.73700
O268        O  0.69102126  0.24959772  0.16594637    -0.74200
O269        O  0.69755575  0.23857877  0.21313256    -0.74100
O270        O  0.74424723  0.19090039  0.21802113    -0.73900
C271        C  0.75989219  0.10922696  0.16084510     0.77900
C272        C  0.60205622  0.10380560  0.15749966     0.78400
C273        C  0.67337427  0.08631727  0.22412194     0.77400
C274        C  0.57805564  0.21927323  0.19912285     0.77700
C275        C  0.69604215  0.23772013  0.14833510     0.78900
C276        C  0.72749464  0.22472832  0.22275455     0.77900
Zn277      Zn  0.12235198  0.90277002  0.19898254     1.49700
Zn278      Zn  0.22176854  0.90515577  0.19965902     1.49400
Zn279      Zn  0.16989863  0.82512480  0.19111462     1.49100
Zn280      Zn  0.17585105  0.89240824  0.15947862     1.49500
O281        O  0.17276192  0.88262345  0.18734269    -1.83400
O282        O  0.13586770  0.94265477  0.22075025    -0.74000
O283        O  0.24533747  0.86222776  0.21869761    -0.73800
O284        O  0.11312644  0.80336429  0.19537345    -0.73300
O285        O  0.20288266  0.95068994  0.21768489    -0.74000
O286        O  0.08078701  0.85748315  0.20638866    -0.73600
O287        O  0.20065379  0.81211924  0.21484556    -0.74200
O288        O  0.18038481  0.84035874  0.14463386    -0.73600
O289        O  0.26261827  0.92889214  0.17856054    -0.74300
O290        O  0.19284603  0.79582403  0.16816687    -0.73700
O291        O  0.22515044  0.92337516  0.15158958    -0.74200
O292        O  0.12745245  0.92387252  0.15093433    -0.74100
O293        O  0.09337142  0.93463859  0.17862043    -0.73900
C294        C  0.16893278  0.96049529  0.22545806     0.77900
C295        C  0.22992018  0.82834720  0.22405710     0.78400
C296        C  0.08121886  0.81953930  0.20239108     0.77400
C297        C  0.19072309  0.80499825  0.15011329     0.77700
C298        C  0.25742993  0.93476791  0.16011077     0.78900
C299        C  0.09764533  0.93915479  0.16023363     0.77900
Zn300      Zn  0.33706445  0.10009373  0.07543105     1.49700
Zn301      Zn  0.41671439  0.05018631  0.07525212     1.49400
Zn302      Zn  0.40438190  0.12781742  0.04592320     1.49100
Zn303      Zn  0.41537072  0.14077660  0.09076820     1.49500
O304        O  0.39441354  0.10464116  0.07152057    -1.83400
O305        O  0.32578992  0.05569737  0.09490050    -0.74000
O306        O  0.43985753  0.03049813  0.04898187    -0.73800
O307        O  0.35101880  0.12922377  0.03045510    -0.73300
O308        O  0.37753070  0.01319223  0.09160698    -0.74000
O309        O  0.30977466  0.09238827  0.04933184    -0.73600
O310        O  0.43980266  0.08833704  0.03206505    -0.74200
O311        O  0.44835932  0.18583916  0.07870045    -0.73600
O312        O  0.46511466  0.05398964  0.09296092    -0.74300
O313        O  0.43632919  0.18234194  0.04676427    -0.73700
O314        O  0.45092848  0.11087106  0.10922113    -0.74200
O315        O  0.37026536  0.16827888  0.10475783    -0.74100
O316        O  0.31514787  0.15063734  0.08786836    -0.73900
C317        C  0.34410819  0.02334271  0.09991390     0.77900
C318        C  0.45048751  0.05147303  0.03403018     0.78400
C319        C  0.31780355  0.10985744  0.03312531     0.77400
C320        C  0.45291865  0.19989208  0.06147398     0.77700
C321        C  0.47143334  0.07850215  0.10702797     0.78900
C322        C  0.33282779  0.17228705  0.10070813     0.77900
Zn323      Zn  0.28304816  0.35681636  0.18228855     1.49700
Zn324      Zn  0.37258995  0.35078013  0.16852119     1.49400
Zn325      Zn  0.33709390  0.43483740  0.18103933     1.49100
Zn326      Zn  0.36169708  0.36962582  0.21164266     1.49500
O327        O  0.33768584  0.37776009  0.18629091    -1.83400
O328        O  0.28565853  0.30796332  0.16456535    -0.74000
O329        O  0.40990566  0.39130575  0.15774088    -0.73800
O330        O  0.29268026  0.44720241  0.16209152    -0.73300
O331        O  0.34105021  0.32335128  0.14756321    -0.74000
O332        O  0.24832926  0.39702343  0.16509649    -0.73600
O333        O  0.38848460  0.45152950  0.16829466    -0.74200
O334        O  0.36412029  0.42359329  0.22643424    -0.73600
O335        O  0.40934399  0.30956415  0.18132512    -0.74300
O336        O  0.33397395  0.46663930  0.20596883    -0.73700
O337        O  0.41686928  0.33844053  0.21046231    -0.74200
O338        O  0.32177223  0.33529112  0.22586871    -0.74100
O339        O  0.26345520  0.33503552  0.20903826    -0.73900
C340        C  0.30868903  0.30291057  0.14979993     0.77900
C341        C  0.41400977  0.42941788  0.15940368     0.78400
C342        C  0.25971213  0.43012585  0.15689695     0.77400
C343        C  0.34936584  0.45859106  0.22264788     0.77700
C344        C  0.42829794  0.31265496  0.19751815     0.78900
C345        C  0.28463008  0.32497582  0.22410111     0.77900
Zn346      Zn  0.13407469  0.64797166  0.05940446     1.49700
Zn347      Zn  0.12681695  0.59588113  0.09837745     1.49400
Zn348      Zn  0.05475127  0.60386663  0.06932725     1.49100
Zn349      Zn  0.13074572  0.54851752  0.05864524     1.49500
O350        O  0.11259914  0.59882740  0.07114838    -1.83400
O351        O  0.16809759  0.67755841  0.07903856    -0.74000
O352        O  0.07865202  0.58298358  0.11494209    -0.73800
O353        O  0.03529178  0.66172332  0.06619954    -0.73300
O354        O  0.15327813  0.64664385  0.10705986    -0.74000
O355        O  0.08986186  0.69074171  0.05339416    -0.73600
O356        O  0.02945128  0.57994932  0.09282840    -0.74200
O357        O  0.08345086  0.52744050  0.04105864    -0.73600
O358        O  0.16492113  0.55153853  0.10387822    -0.74300
O359        O  0.03531392  0.57344118  0.04645829    -0.73700
O360        O  0.15609897  0.50753330  0.07954081    -0.74200
O361        O  0.17523729  0.56490436  0.03941837    -0.74100
O362        O  0.17079910  0.63220519  0.03681939    -0.73900
C363        C  0.16966541  0.67549507  0.09762553     0.77900
C364        C  0.04213566  0.57525156  0.11026127     0.78400
C365        C  0.05271141  0.69249250  0.05876342     0.77400
C366        C  0.04884485  0.54324870  0.03694365     0.77700
C367        C  0.17094361  0.51685009  0.09640996     0.78900
C368        C  0.18641535  0.59832369  0.03162795     0.77900
Zn369      Zn  0.38940941  0.90310114  0.80946339     1.49700
Zn370      Zn  0.34124908  0.89477815  0.84980919     1.49400
Zn371      Zn  0.28949888  0.90148388  0.81118397     1.49100
Zn372      Zn  0.34432086  0.82468838  0.82012307     1.49500
O373        O  0.34083634  0.88235200  0.82234133    -1.83400
O374        O  0.42048943  0.93856944  0.82835726    -0.74000
O375        O  0.29303505  0.92487690  0.85834958    -0.73800
O376        O  0.30480112  0.94675629  0.79228197    -0.73300
O377        O  0.38873407  0.92786594  0.85659243    -0.74000
O378        O  0.37133089  0.93915609  0.78701363    -0.73600
O379        O  0.24974008  0.92400957  0.83351771    -0.74200
O380        O  0.31159097  0.80623261  0.79796903    -0.73600
O381        O  0.33860909  0.84523985  0.86631897    -0.74300
O382        O  0.26663052  0.85545736  0.79320853    -0.73700
O383        O  0.32291206  0.79906424  0.84396049    -0.74200
O384        O  0.40103361  0.80394667  0.81546757    -0.74100
O385        O  0.43057726  0.85759692  0.80225611    -0.73900
C386        C  0.41731413  0.94376495  0.84679215     0.77900
C387        C  0.25812129  0.93236667  0.85152463     0.78400
C388        C  0.33737789  0.95627837  0.78316269     0.77400
C389        C  0.28133249  0.82052579  0.78883246     0.77700
C390        C  0.32633544  0.80998388  0.86173009     0.78900
C391        C  0.43157680  0.82021501  0.80724621     0.77900
Zn392      Zn  0.13328641  0.05335938  0.94872857     1.49700
Zn393      Zn  0.11399509  0.10278481  0.90987356     1.49400
Zn394      Zn  0.05506602  0.10743128  0.94460910     1.49100
Zn395      Zn  0.13455184  0.15271299  0.94856061     1.49500
O396        O  0.11101601  0.10350999  0.93794851    -1.83400
O397        O  0.15526724  0.01573479  0.92560991    -0.74000
O398        O  0.05918971  0.09389006  0.89808884    -0.73800
O399        O  0.04568925  0.07913171  0.96925196    -0.73300
O400        O  0.14584184  0.05621880  0.90005953    -0.74000
O401        O  0.09030325  0.02843892  0.96795608    -0.73600
O402        O  0.02134742  0.08128013  0.92424986    -0.74200
O403        O  0.09177265  0.19649064  0.95589129    -0.73600
O404        O  0.14113657  0.15301956  0.90020301    -0.74300
O405        O  0.03525301  0.16465354  0.94758200    -0.73700
O406        O  0.16597892  0.18014677  0.92759745    -0.74200
O407        O  0.17460124  0.13741994  0.96970799    -0.74100
O408        O  0.18040834  0.07023862  0.96646489    -0.73900
C409        C  0.15890837  0.02323226  0.90716317     0.77900
C410        C  0.02618682  0.08180165  0.90579547     0.78400
C411        C  0.05969949  0.04615579  0.97593378     0.77400
C412        C  0.05344428  0.19683129  0.95286103     0.77700
C413        C  0.16238932  0.17963323  0.90905531     0.78900
C414        C  0.19162378  0.10384657  0.97416731     0.77900
Zn415      Zn  0.67423413  0.65811478  0.84580886     1.49700
Zn416      Zn  0.62328999  0.64206031  0.80678930     1.49400
Zn417      Zn  0.66935425  0.71989494  0.81233732     1.49100
Zn418      Zn  0.72360975  0.64229596  0.80698720     1.49500
O419        O  0.67310748  0.66373283  0.81794432    -1.83400
O420        O  0.62492592  0.62890993  0.85469726    -0.74000
O421        O  0.58006438  0.68565021  0.79979411    -0.73800
O422        O  0.69561773  0.75128894  0.83334227    -0.73300
O423        O  0.59487048  0.60937905  0.82702269    -0.74000
O424        O  0.68138152  0.71192200  0.85874823    -0.73600
O425        O  0.61217533  0.74057767  0.80993922    -0.74200
O426        O  0.74821321  0.68616330  0.78815864    -0.73600
O427        O  0.63875209  0.60295440  0.78540894    -0.74300
O428        O  0.69765286  0.73111740  0.78780606    -0.73700
O429        O  0.70583985  0.59586172  0.78923179    -0.74200
O430        O  0.76235185  0.61936490  0.82957106    -0.74100
O431        O  0.72142520  0.62659119  0.85511711    -0.73900
C432        C  0.59732801  0.60947930  0.84560257     0.77900
C433        C  0.57994272  0.72351343  0.80388201     0.78400
C434        C  0.69364749  0.74541159  0.85168319     0.77400
C435        C  0.73058775  0.71741288  0.78083458     0.77700
C436        C  0.67219457  0.58515185  0.78136875     0.78900
C437        C  0.75482466  0.61457999  0.84795238     0.77900
Zn438      Zn  0.87438699  0.38737410  0.94588542     1.49700
Zn439      Zn  0.88760980  0.43572598  0.90585776     1.49400
Zn440      Zn  0.87485963  0.48660636  0.94497119     1.49100
Zn441      Zn  0.95280379  0.43269403  0.93705313     1.49500
O442        O  0.89563429  0.43604108  0.93369501    -1.83400
O443        O  0.84032222  0.35799187  0.92606926    -0.74000
O444        O  0.85708288  0.48329703  0.89685248    -0.73800
O445        O  0.82739498  0.47066081  0.96277422    -0.73300
O446        O  0.85585693  0.38774307  0.89783292    -0.74000
O447        O  0.83581790  0.40428175  0.96765905    -0.73600
O448        O  0.85404850  0.52590670  0.92201029    -0.74200
O449        O  0.96737149  0.46204645  0.96069241    -0.73600
O450        O  0.93931602  0.44214935  0.89098584    -0.74300
O451        O  0.91922794  0.50865220  0.96447535    -0.73700
O452        O  0.98096750  0.45945108  0.91501682    -0.74200
O453        O  0.97346573  0.37568059  0.94042911    -0.74100
O454        O  0.91965002  0.34608666  0.95353243    -0.73900
C455        C  0.83731629  0.36059119  0.90751175     0.77900
C456        C  0.84777785  0.51772291  0.90375057     0.78400
C457        C  0.81755679  0.43765888  0.97141186     0.77400
C458        C  0.95296133  0.49235698  0.96975524     0.77700
C459        C  0.97249173  0.45760326  0.89689302     0.78900
C460        C  0.95716800  0.34509360  0.94858262     0.77900
Zn461      Zn  0.86062212  0.17153004  0.79765995     1.49700
Zn462      Zn  0.83286035  0.09993742  0.82565156     1.49400
Zn463      Zn  0.86862252  0.17874892  0.84302390     1.49100
Zn464      Zn  0.77939166  0.17882413  0.82531326     1.49500
O465        O  0.83515062  0.15793484  0.82255980    -1.83400
O466        O  0.86362620  0.12020120  0.78061221    -0.74000
O467        O  0.87951952  0.07868507  0.84130102    -0.73800
O468        O  0.91508948  0.21248033  0.83258033    -0.73300
O469        O  0.83504996  0.07312937  0.79953983    -0.74000
O470        O  0.91517457  0.20319968  0.80043477    -0.73600
O471        O  0.89249967  0.13440418  0.85855301    -0.74200
O472        O  0.77964775  0.22532208  0.84429607    -0.73600
O473        O  0.78360695  0.08475711  0.84133440    -0.74300
O474        O  0.83659405  0.21322839  0.86081036    -0.73700
O475        O  0.74165585  0.13717531  0.83993744    -0.74200
O476        O  0.76233958  0.20481785  0.79893024    -0.74100
O477        O  0.82265177  0.20925299  0.78411078    -0.73900
C478        C  0.85005590  0.08424150  0.78320902     0.77900
C479        C  0.89714475  0.09680551  0.85533360     0.78400
C480        C  0.93086564  0.21900429  0.81582315     0.77400
C481        C  0.80333472  0.23207351  0.85862809     0.77700
C482        C  0.75049616  0.10175126  0.84636862     0.78900
C483        C  0.78520169  0.21855392  0.78520085     0.77900
Zn484      Zn  0.67346127  0.93666167  0.93326483     1.49700
Zn485      Zn  0.60390659  0.91090277  0.96256934     1.49400
Zn486      Zn  0.59403252  0.98946328  0.93338696     1.49100
Zn487      Zn  0.59298893  0.89946610  0.91755354     1.49500
O488        O  0.61549142  0.93431111  0.93706859    -1.83400
O489        O  0.70237959  0.93572600  0.95908533    -0.74000
O490        O  0.56971506  0.95107935  0.97657966    -0.73800
O491        O  0.63459526  0.02657989  0.91810443    -0.73300
O492        O  0.65657972  0.90602291  0.97836149    -0.74000
O493        O  0.68656298  0.98409291  0.91577441    -0.73600
O494        O  0.56930660  0.00863640  0.95946105    -0.74200
O495        O  0.56021862  0.93056448  0.89847219    -0.73600
O496        O  0.57003532  0.85780419  0.96119127    -0.74300
O497        O  0.54759841  0.98814056  0.91432656    -0.73700
O498        O  0.55847988  0.85525414  0.92918501    -0.74200
O499        O  0.63674042  0.87235434  0.90297808    -0.74100
O500        O  0.69403608  0.88896923  0.91820783    -0.73900
C501        C  0.69238439  0.91974396  0.97539263     0.77900
C502        C  0.55894501  0.98787917  0.97452810     0.78400
C503        C  0.66874262  0.01660778  0.91051540     0.77400
C504        C  0.54177708  0.96421017  0.89997606     0.77700
C505        C  0.55318819  0.84107763  0.94634136     0.78900
C506        C  0.67478566  0.86904445  0.90531136     0.77900
Zn507      Zn  0.13254705  0.37071695  0.84308003     1.49700
Zn508      Zn  0.21960663  0.36180608  0.82635302     1.49400
Zn509      Zn  0.14132025  0.37625679  0.79758156     1.49100
Zn510      Zn  0.17506555  0.44433773  0.82519500     1.49500
O511        O  0.16721265  0.38731651  0.82250092    -1.83400
O512        O  0.16212671  0.33907173  0.86341160    -0.74000
O513        O  0.23634272  0.33431258  0.80061390    -0.73800
O514        O  0.08567846  0.34577067  0.80069643    -0.73300
O515        O  0.21207766  0.31542656  0.84474847    -0.74000
O516        O  0.08838964  0.33467050  0.83265696    -0.73600
O517        O  0.17798327  0.33650148  0.78397775    -0.74200
O518        O  0.18387140  0.46836918  0.79871570    -0.73600
O519        O  0.25926959  0.39975238  0.84192003    -0.74300
O520        O  0.14147498  0.42945734  0.78129879    -0.73700
O521        O  0.21997167  0.45423992  0.84460902    -0.74200
O522        O  0.12533355  0.47060660  0.83628448    -0.74100
O523        O  0.10476513  0.41835593  0.85429958    -0.73900
C524        C  0.19007211  0.31343127  0.85999735     0.77900
C525        C  0.21406604  0.32317401  0.78612856     0.78400
C526        C  0.07158186  0.32858393  0.81610566     0.77400
C527        C  0.16358444  0.46132452  0.78314463     0.77700
C528        C  0.25120239  0.43416781  0.84980811     0.78900
C529        C  0.10193781  0.45511867  0.84898136     0.77900
Zn530      Zn  0.37668890  0.64942939  0.95037845     1.49700
Zn531      Zn  0.45254086  0.60512479  0.93860122     1.49400
Zn532      Zn  0.37662200  0.55109273  0.94891162     1.49100
Zn533      Zn  0.38367948  0.59989288  0.90923562     1.49500
O534        O  0.39550085  0.60075911  0.93679325    -1.83400
O535        O  0.42199885  0.69048511  0.95818777    -0.74000
O536        O  0.47090546  0.57710449  0.96205644    -0.73800
O537        O  0.32995186  0.56687362  0.96705550    -0.73300
O538        O  0.47050205  0.66294140  0.94017271    -0.74000
O539        O  0.33719985  0.63341749  0.97169170    -0.73600
O540        O  0.42286783  0.53090572  0.96725595    -0.74200
O541        O  0.35053203  0.55209823  0.90166550    -0.73600
O542        O  0.47975848  0.58058172  0.91581705    -0.74300
O543        O  0.35397273  0.51064891  0.92734043    -0.73700
O544        O  0.43430663  0.59456678  0.89294990    -0.74200
O545        O  0.35394060  0.65023332  0.90257413    -0.74100
O546        O  0.34510937  0.68165811  0.93123934    -0.73900
C547        C  0.45640481  0.69308104  0.94961278     0.77900
C548        C  0.45712904  0.54721416  0.97161608     0.78400
C549        C  0.31926300  0.59996079  0.97541214     0.77400
C550        C  0.34332484  0.51806915  0.90956431     0.77700
C551        C  0.46975848  0.58325811  0.89791637     0.78900
C552        C  0.34042428  0.67963856  0.91278335     0.77900
Zn553      Zn  0.09689104  0.40914270  0.41194066     1.49700
Zn554      Zn  0.09410681  0.49409114  0.43306257     1.49400
Zn555      Zn  0.10320287  0.41101577  0.45845260     1.49100
Zn556      Zn  0.17361032  0.44141242  0.43165301     1.49500
O557        O  0.11593428  0.43909454  0.43429703    -1.83400
O558        O  0.05832819  0.44158102  0.39595285    -0.74000
O559        O  0.07067019  0.50889700  0.46040803    -0.73800
O560        O  0.07330191  0.35681757  0.45318935    -0.73300
O561        O  0.04482867  0.49363724  0.41567530    -0.74000
O562        O  0.06607665  0.35967283  0.42090303    -0.73600
O563        O  0.06523818  0.44713694  0.47351406    -0.74200
O564        O  0.20134750  0.43773927  0.45753510    -0.73600
O565        O  0.13493200  0.53222060  0.41805113    -0.74300
O566        O  0.15487488  0.40529967  0.47528643    -0.73700
O567        O  0.18801716  0.49089280  0.41627166    -0.74200
O568        O  0.19363476  0.39418156  0.41622127    -0.74100
O569        O  0.14243060  0.38921746  0.39520338    -0.73900
C570        C  0.03709488  0.47227998  0.40060195     0.77900
C571        C  0.05673290  0.48484807  0.47360770     0.78400
C572        C  0.05930482  0.34207099  0.43717731     0.77400
C573        C  0.19073704  0.41960058  0.47316322     0.77700
C574        C  0.17044537  0.52380910  0.41142689     0.78900
C575        C  0.17807127  0.37985939  0.40067687     0.77900
Zn576      Zn  0.37550662  0.68558367  0.33827951     1.49700
Zn577      Zn  0.28385801  0.68338725  0.32535027     1.49400
Zn578      Zn  0.36141759  0.67073662  0.29516817     1.49100
Zn579      Zn  0.33618429  0.60358177  0.32528484     1.49500
O580        O  0.33828199  0.66091489  0.32071087    -1.83400
O581        O  0.34637231  0.71341962  0.35967402    -0.74000
O582        O  0.26597808  0.71223614  0.29989443    -0.73800
O583        O  0.41754602  0.69957909  0.29577193    -0.73300
O584        O  0.28793094  0.72832639  0.34513500    -0.74000
O585        O  0.41243093  0.72629109  0.32545743    -0.73600
O586        O  0.32387279  0.71017012  0.28277713    -0.74200
O587        O  0.33454757  0.57334031  0.29987575    -0.73600
O588        O  0.24616176  0.64251417  0.34072609    -0.74300
O589        O  0.36095170  0.61821963  0.27913621    -0.73700
O590        O  0.28956029  0.59144369  0.34299716    -0.74200
O591        O  0.38539125  0.58439587  0.33959928    -0.74100
O592        O  0.41094989  0.64353054  0.34934032    -0.73900
C593        C  0.31317393  0.73293346  0.35904938     0.77900
C594        C  0.28807327  0.72368499  0.28539673     0.78400
C595        C  0.42980313  0.72462766  0.30883497     0.77400
C596        C  0.34791808  0.58255856  0.28293768     0.77700
C597        C  0.25674393  0.60855650  0.34833367     0.78900
C598        C  0.41187222  0.60511278  0.34865648     0.77900
Zn599      Zn  0.84063860  0.09985309  0.42982777     1.49700
Zn600      Zn  0.91675015  0.13300627  0.41030569     1.49400
Zn601      Zn  0.90913078  0.12958112  0.45647556     1.49100
Zn602      Zn  0.91818403  0.04715578  0.42977621     1.49500
O603        O  0.89769639  0.10224784  0.43205957    -1.83400
O604        O  0.82074903  0.15001228  0.41688074    -0.74000
O605        O  0.94926371  0.18118965  0.41995603    -0.73800
O606        O  0.85751983  0.13368858  0.47379689    -0.73300
O607        O  0.87031165  0.15474483  0.39487129    -0.74000
O608        O  0.81477529  0.09606916  0.45620597    -0.73600
O609        O  0.94006988  0.18327575  0.45217902    -0.74200
O610        O  0.94252734  0.03147306  0.45649224    -0.73600
O611        O  0.95366329  0.10026117  0.39337510    -0.74300
O612        O  0.94737972  0.09286946  0.47024669    -0.73700
O613        O  0.96714437  0.04766516  0.41260288    -0.74200
O614        O  0.87756108  0.01077645  0.41357900    -0.74100
O615        O  0.82657424  0.05442183  0.41175082    -0.73900
C616        C  0.83551443  0.16486584  0.40128452     0.77900
C617        C  0.95554467  0.19801131  0.43654226     0.78400
C618        C  0.82381724  0.11464606  0.47201611     0.77400
C619        C  0.95691525  0.05548706  0.46965419     0.77700
C620        C  0.97476684  0.06928954  0.39770634     0.78900
C621        C  0.84354096  0.02178065  0.40609439     0.77900
Zn622      Zn  0.66296303  0.82291957  0.31809739     1.49700
Zn623      Zn  0.67187418  0.89581092  0.34729883     1.49400
Zn624      Zn  0.72024634  0.89765470  0.30779344     1.49100
Zn625      Zn  0.62058969  0.90352732  0.30787546     1.49500
O626        O  0.66911318  0.88080106  0.32001045    -1.83400
O627        O  0.68227641  0.79733880  0.34253898    -0.74000
O628        O  0.71957818  0.92949177  0.35357997    -0.73800
O629        O  0.74128695  0.85010623  0.29067221    -0.73300
O630        O  0.67900603  0.84738160  0.36423435    -0.74000
O631        O  0.69587233  0.80175383  0.29637933    -0.73600
O632        O  0.76221882  0.92056325  0.32872991    -0.74200
O633        O  0.63796838  0.94002603  0.28569218    -0.73600
O634        O  0.62302782  0.92654018  0.35534071    -0.74300
O635        O  0.70541192  0.94275890  0.28863360    -0.73700
O636        O  0.59080915  0.93810807  0.32728929    -0.74200
O637        O  0.57733581  0.86046529  0.30085638    -0.74100
O638        O  0.60538633  0.80481595  0.31299860    -0.73900
C639        C  0.68526064  0.81040501  0.36001939     0.77900
C640        C  0.75433201  0.93419795  0.34597000     0.78400
C641        C  0.72635842  0.81497768  0.28703125     0.77400
C642        C  0.67232130  0.95486211  0.28074799     0.77700
C643        C  0.59389636  0.94213229  0.34576920     0.78900
C644        C  0.57518121  0.82299500  0.30543937     0.77900
Zn645      Zn  0.41925582  0.89948065  0.41970638     1.49700
Zn646      Zn  0.40283254  0.91671973  0.46232378     1.49400
Zn647      Zn  0.41672867  0.99147659  0.43177518     1.49100
Zn648      Zn  0.33571033  0.94065388  0.43114159     1.49500
O649        O  0.39327417  0.93798992  0.43635953    -1.83400
O650        O  0.45981671  0.86381121  0.43393634    -0.74000
O651        O  0.44414317  0.95295935  0.47442909    -0.73800
O652        O  0.46070783  0.98720675  0.41171314    -0.73300
O653        O  0.42859088  0.85970892  0.46260364    -0.74000
O654        O  0.44783361  0.92746696  0.39787355    -0.73600
O655        O  0.44543821  0.00991437  0.45675386    -0.74200
O656        O  0.32291199  0.98994760  0.41484387    -0.73600
O657        O  0.35086983  0.92007480  0.47837009    -0.74300
O658        O  0.37640949  0.03048763  0.41796991    -0.73700
O659        O  0.30492781  0.94112315  0.45658243    -0.74200
O660        O  0.31752632  0.89137465  0.41629565    -0.74100
O661        O  0.37700160  0.86258764  0.40933191    -0.73900
C662        C  0.45519873  0.84677577  0.45050039     0.77900
C663        C  0.45731309  0.98864350  0.47135565     0.78400
C664        C  0.46610306  0.96141361  0.39811374     0.77400
C665        C  0.34116104  0.02303628  0.41092622     0.77700
C666        C  0.31487486  0.93112344  0.47395746     0.78900
C667        C  0.33842545  0.86272861  0.40898700     0.77900
Zn668      Zn  0.14698644  0.17292496  0.29875745     1.49700
Zn669      Zn  0.17860120  0.10556301  0.32631528     1.49400
Zn670      Zn  0.22899236  0.18361028  0.32542556     1.49100
Zn671      Zn  0.14227852  0.18130937  0.34488303     1.49500
O672        O  0.17408122  0.16240063  0.32339504    -1.83400
O673        O  0.14320767  0.11939913  0.28282704    -0.74000
O674        O  0.22408847  0.09335955  0.34467120    -0.73800
O675        O  0.24560662  0.20551366  0.29855978    -0.73300
O676        O  0.18403481  0.07925588  0.30021179    -0.74000
O677        O  0.18507307  0.20886209  0.28384012    -0.73600
O678        O  0.26707371  0.14465650  0.34137132    -0.74200
O679        O  0.17461286  0.21896168  0.36174379    -0.73600
O680        O  0.12902330  0.08381459  0.33905954    -0.74300
O681        O  0.22660686  0.23328211  0.34208900    -0.73700
O682        O  0.11971209  0.13460690  0.36011103    -0.74200
O683        O  0.09443726  0.21372546  0.33482954    -0.74100
O684        O  0.09270412  0.20519415  0.30259406    -0.73900
C685        C  0.16389387  0.08668192  0.28468833     0.77900
C686        C  0.25689070  0.11114722  0.34947277     0.78400
C687        C  0.22269962  0.21794355  0.28459129     0.77400
C688        C  0.20486174  0.24083651  0.35701719     0.77700
C689        C  0.11216892  0.09879280  0.35415030     0.78900
C690        C  0.07769109  0.22049671  0.31830571     0.77900
Zn691      Zn  0.55339218  0.61325374  0.44394910     1.49700
Zn692      Zn  0.62175835  0.60898755  0.41320937     1.49400
Zn693      Zn  0.63371398  0.65781852  0.45256275     1.49100
Zn694      Zn  0.63083356  0.55712518  0.45099436     1.49500
O695        O  0.61097851  0.60899099  0.44055094    -1.83400
O696        O  0.52427086  0.59177061  0.42043604    -0.74000
O697        O  0.64928911  0.65882161  0.40514569    -0.73800
O698        O  0.59023633  0.69991544  0.46061566    -0.73300
O699        O  0.57177763  0.60045706  0.39787610    -0.74000
O700        O  0.53474202  0.67067213  0.44884176    -0.73600
O701        O  0.66651892  0.68904466  0.43303874    -0.74200
O702        O  0.67677486  0.57286840  0.46947742    -0.73600
O703        O  0.65701288  0.56434774  0.40496835    -0.74300
O704        O  0.67286549  0.64016466  0.47350588    -0.73700
O705        O  0.65486085  0.51824389  0.42842282    -0.74200
O706        O  0.58565690  0.53323016  0.46915703    -0.74100
O707        O  0.53812755  0.58110005  0.46691427    -0.73900
C708        C  0.53575174  0.59121458  0.40263873     0.77900
C709        C  0.66728582  0.68687993  0.41445636     0.78400
C710        C  0.55256079  0.70141945  0.45615920     0.77400
C711        C  0.68887581  0.60586074  0.47747772     0.77700
C712        C  0.66580139  0.52925191  0.41112290     0.78900
C713        C  0.55237429  0.54957356  0.47501087     0.77900
Zn714      Zn  0.83313941  0.44055680  0.32780410     1.49700
Zn715      Zn  0.86235404  0.37109768  0.30016393     1.49400
Zn716      Zn  0.86962078  0.36433452  0.34597032     1.49100
Zn717      Zn  0.78147816  0.36212689  0.32755462     1.49500
O718        O  0.83651985  0.38326352  0.32498138    -1.83400
O719        O  0.82804229  0.46606954  0.30145781    -0.74000
O720        O  0.91755607  0.34084368  0.30323078    -0.73800
O721        O  0.89080815  0.41057995  0.36185685    -0.73300
O722        O  0.86464194  0.42292335  0.28345114    -0.74000
O723        O  0.88317261  0.46170712  0.34099438    -0.73600
O724        O  0.91829058  0.33342656  0.33549170    -0.74200
O725        O  0.78450388  0.31262536  0.34418061    -0.73600
O726        O  0.82436789  0.33331270  0.28629777    -0.74300
O727        O  0.83884822  0.32561473  0.36258406    -0.73700
O728        O  0.76341574  0.33943546  0.30046271    -0.74200
O729        O  0.74509508  0.40201069  0.34437063    -0.74100
O730        O  0.78674538  0.45477174  0.34550598    -0.73900
C731        C  0.84566957  0.45655649  0.28548472     0.77900
C732        C  0.93407708  0.32655016  0.31873361     0.78400
C733        C  0.89910413  0.44634444  0.35622860     0.77400
C734        C  0.80775253  0.30440941  0.35847276     0.77700
C735        C  0.78657411  0.32507838  0.28693623     0.78900
C736        C  0.75430406  0.43725993  0.35105431     0.77900
C737        C  0.70621519  0.43868357  0.38063188    -0.20500
C738        C  0.72874298  0.45908469  0.36602253    -0.08600
C739        C  0.73089369  0.50164045  0.36716953     0.30300
C740        C  0.71165650  0.52286831  0.38225350    -0.20500
C741        C  0.68910567  0.50304983  0.39692914    -0.08600
C742        C  0.68665245  0.46038191  0.39598468     0.30300
F743        F  0.66478492  0.43979513  0.40953096    -0.19100
H744        H  0.70446966  0.40591877  0.38041170     0.18700
H745        H  0.71435111  0.55559487  0.38229383     0.18700
F746        F  0.75159787  0.52325152  0.35352893    -0.19100
C747        C  0.02445360  0.26244252  0.30015779    -0.20500
C748        C  0.04059210  0.24728418  0.31784999    -0.08600
C749        C  0.02160185  0.25935159  0.33549586     0.30300
C750        C  0.98798791  0.28530388  0.33539609    -0.20500
C751        C  0.97158245  0.30043580  0.31782622    -0.08600
C752        C  0.99048841  0.28872143  0.30009317     0.30300
F753        F  0.97622828  0.30243003  0.28267459    -0.19100
H754        H  0.03831647  0.25421793  0.28632914     0.18700
H755        H  0.97454124  0.29328553  0.34935680     0.18700
F756        F  0.03510660  0.24587390  0.35311001    -0.19100
C757        C  0.48679255  0.73851914  0.46149826    -0.20500
C758        C  0.52902127  0.73985795  0.45830513    -0.08600
C759        C  0.54711602  0.77774755  0.45456534     0.30300
C760        C  0.52304960  0.81269501  0.45269800    -0.20500
C761        C  0.48073378  0.81096249  0.45522070    -0.08600
C762        C  0.46295375  0.77372808  0.46026510     0.30300
F763        F  0.42215614  0.77082355  0.46259768    -0.19100
H764        H  0.47198900  0.70983728  0.46435641     0.18700
H765        H  0.53738865  0.84108092  0.44879135     0.18700
F766        F  0.58764312  0.78060698  0.45130288    -0.19100
C767        C  0.34318123  0.07365014  0.38292975    -0.20500
C768        C  0.32093906  0.05165718  0.39704802    -0.08600
C769        C  0.27834962  0.05261765  0.39600204     0.30300
C770        C  0.25870176  0.07277494  0.38073836    -0.20500
C771        C  0.28056710  0.09296911  0.36598343    -0.08600
C772        C  0.32320543  0.09430436  0.36753543     0.30300
F773        F  0.34556805  0.11346148  0.35367992    -0.19100
H774        H  0.37602098  0.07314478  0.38323246     0.18700
H775        H  0.22584157  0.07213000  0.38036029     0.18700
F776        F  0.25544118  0.03322180  0.40959331    -0.19100
C777        C  0.70424286  0.74134579  0.37051545    -0.20500
C778        C  0.69370926  0.78117059  0.37568539    -0.08600
C779        C  0.68575106  0.79056197  0.39546627     0.30300
C780        C  0.68211552  0.75937187  0.40909960    -0.20500
C781        C  0.68639609  0.71898520  0.40303237    -0.08600
C782        C  0.70054096  0.71035005  0.38408821     0.30300
F783        F  0.70698015  0.67155157  0.37817160    -0.19100
H784        H  0.71209372  0.73357282  0.35557322     0.18700
H785        H  0.67175708  0.76651194  0.42375840     0.18700
F786        F  0.67733698  0.82904042  0.40126128    -0.19100
C787        C  0.52075152  0.95453538  0.35033166    -0.20500
C788        C  0.56068988  0.96109458  0.35674095    -0.08600
C789        C  0.56756266  0.97722445  0.37554878     0.30300
C790        C  0.53523503  0.98174410  0.38853012    -0.20500
C791        C  0.49622635  0.96943442  0.38294281    -0.08600
C792        C  0.48862352  0.95810932  0.36346503     0.30300
F793        F  0.45069491  0.94748608  0.35761798    -0.19100
H794        H  0.51477019  0.94238684  0.33583516     0.18700
H795        H  0.54136292  0.99094899  0.40351116     0.18700
F796        F  0.60579808  0.98511400  0.38192322    -0.19100
C797        C  0.80957075  0.19498170  0.37080771    -0.20500
C798        C  0.81433720  0.19725408  0.39116928    -0.08600
C799        C  0.80843187  0.23417284  0.40098040     0.30300
C800        C  0.80238761  0.26940648  0.39020299    -0.20500
C801        C  0.80103572  0.26764435  0.36971437    -0.08600
C802        C  0.80236006  0.23005659  0.36006573     0.30300
F803        F  0.80200947  0.22793576  0.34018730    -0.19100
H804        H  0.81468745  0.16661575  0.36313264     0.18700
H805        H  0.80183174  0.29840180  0.39771813     0.18700
F806        F  0.81390170  0.23695148  0.42066305    -0.19100
C807        C  0.00849036  0.06344324  0.36558907    -0.20500
C808        C  0.01092199  0.06115948  0.38604710    -0.08600
C809        C  0.04898961  0.06129508  0.39530443     0.30300
C810        C  0.08368441  0.06965122  0.38437019    -0.20500
C811        C  0.08055222  0.07619700  0.36416887    -0.08600
C812        C  0.04338149  0.07028803  0.35458919     0.30300
F813        F  0.03997249  0.07665726  0.33500728    -0.19100
H814        H  0.97920240  0.06340796  0.35833253     0.18700
H815        H  0.11235220  0.07433551  0.39185050     0.18700
F816        F  0.05193618  0.05905400  0.41512216    -0.19100
C817        C  0.83643124  0.95989367  0.38350326    -0.20500
C818        C  0.82354451  0.99875739  0.38959937    -0.08600
C819        C  0.79163737  0.01717278  0.37893071     0.30300
C820        C  0.77237515  0.99687261  0.36354479    -0.20500
C821        C  0.78387513  0.95768362  0.35797798    -0.08600
C822        C  0.81654355  0.93933858  0.36796020     0.30300
F823        F  0.82764356  0.90082640  0.36347408    -0.19100
H824        H  0.86108662  0.94496959  0.39109562     0.18700
H825        H  0.74677225  0.01132021  0.35643748     0.18700
F826        F  0.77821111  0.05498043  0.38339822    -0.19100
C827        C  0.49963165  0.73808937  0.29513264    -0.20500
C828        C  0.46513660  0.75194294  0.30526753    -0.08600
C829        C  0.46617649  0.79109446  0.31363088     0.30300
C830        C  0.50117884  0.81516138  0.31232758    -0.20500
C831        C  0.53639205  0.80037162  0.30323027    -0.08600
C832        C  0.53518532  0.76170995  0.29442756     0.30300
F833        F  0.56869733  0.74645087  0.28551265    -0.19100
H834        H  0.49980540  0.70808966  0.28867039     0.18700
H835        H  0.50150724  0.84455524  0.31943147     0.18700
F836        F  0.43356599  0.80582460  0.32350033    -0.19100
C837        C  0.32241940  0.75679798  0.39294983    -0.20500
C838        C  0.30600677  0.76335232  0.37426948    -0.08600
C839        C  0.29094801  0.80185654  0.36931731     0.30300
C840        C  0.29724815  0.83446524  0.38204141    -0.20500
C841        C  0.31847913  0.82852693  0.39957603    -0.08600
C842        C  0.32878072  0.78928007  0.40555715     0.30300
F843        F  0.34854548  0.78304174  0.42275519    -0.19100
H844        H  0.33359742  0.72714322  0.39707729     0.18700
H845        H  0.28947098  0.86478838  0.37729495     0.18700
F846        F  0.27516855  0.80902071  0.35127600    -0.19100
C847        C  0.48403809  0.59305131  0.35370766    -0.20500
C848        C  0.44409737  0.58533615  0.35942555    -0.08600
C849        C  0.43584796  0.57078210  0.37824890     0.30300
C850        C  0.46688887  0.56924339  0.39208943    -0.20500
C851        C  0.50622899  0.58200971  0.38709384    -0.08600
C852        C  0.51522117  0.59099589  0.36737591     0.30300
F853        F  0.55308536  0.60206858  0.36166152    -0.19100
H854        H  0.49046137  0.60456552  0.33917542     0.18700
H855        H  0.45941861  0.56123576  0.40703995     0.18700
F856        F  0.39707972  0.56331660  0.38392162    -0.19100
C857        C  0.02407452  0.28436038  0.45480554    -0.20500
C858        C  0.03371868  0.30444086  0.43720971    -0.08600
C859        C  0.01732374  0.28887850  0.41958704     0.30300
C860        C  0.99193519  0.25487709  0.41969906    -0.20500
C861        C  0.98188384  0.23501080  0.43725364    -0.08600
C862        C  0.99856403  0.25008652  0.45487817     0.30300
F863        F  0.99088941  0.23141260  0.47217307    -0.19100
H864        H  0.03618297  0.29525189  0.46859433     0.18700
H865        H  0.97997137  0.24415792  0.40584386     0.18700
F866        F  0.02545203  0.30648726  0.40206201    -0.19100
C867        C  0.20870165  0.31502892  0.35852174    -0.20500
C868        C  0.21210589  0.27776653  0.36820082    -0.08600
C869        C  0.21356880  0.27654920  0.38871176     0.30300
C870        C  0.20798330  0.31204003  0.39947217    -0.20500
C871        C  0.19929177  0.34839054  0.38976862    -0.08600
C872        C  0.20152934  0.35026752  0.36927511     0.30300
F873        F  0.19320641  0.38530668  0.35969782    -0.19100
H874        H  0.20725304  0.31617462  0.34269025     0.18700
H875        H  0.20590009  0.31025621  0.41527080     0.18700
F876        F  0.21689632  0.24066971  0.39825651    -0.19100
C877        C  0.96293582  0.47901152  0.39831996    -0.20500
C878        C  0.00080184  0.48048459  0.38899782    -0.08600
C879        C  0.00292376  0.48021761  0.36845714     0.30300
C880        C  0.96771190  0.47480975  0.35742640    -0.20500
C881        C  0.93062239  0.46812143  0.36688858    -0.08600
C882        C  0.92793143  0.47208888  0.38731901     0.30300
F883        F  0.89222305  0.46532683  0.39667982    -0.19100
H884        H  0.96100150  0.47868702  0.41415852     0.18700
H885        H  0.97015776  0.47121207  0.34169365     0.18700
F886        F  0.03936210  0.48143307  0.35920405    -0.19100
C887        C  0.19368301  0.60084841  0.37027232    -0.20500
C888        C  0.23321286  0.58882739  0.36472472    -0.08600
C889        C  0.25211836  0.55830034  0.37601770     0.30300
C890        C  0.23200983  0.53977801  0.39158584    -0.20500
C891        C  0.19202078  0.55015000  0.39672118    -0.08600
C892        C  0.17313610  0.58159223  0.38600092     0.30300
F893        F  0.13459407  0.59299454  0.39029464    -0.19100
H894        H  0.17843114  0.62467859  0.36226712     0.18700
H895        H  0.24801515  0.51618804  0.39943076     0.18700
F896        F  0.29069513  0.54604517  0.37227472    -0.19100
C897        C  0.25634755  0.47315349  0.88118489    -0.20500
C898        C  0.27612105  0.45088183  0.86633577    -0.08600
C899        C  0.31850852  0.44600490  0.86769363     0.30300
C900        C  0.34047866  0.46524564  0.88288684    -0.20500
C901        C  0.32050366  0.48843209  0.89735479    -0.08600
C902        C  0.27808957  0.49154185  0.89646365     0.30300
F903        F  0.25785761  0.51474775  0.90969943    -0.19100
H904        H  0.22369704  0.47708192  0.88076521     0.18700
H905        H  0.37332953  0.46364689  0.88282687     0.18700
F906        F  0.33891732  0.42497544  0.85371186    -0.19100
C907        C  0.47887902  0.75994876  0.96500644    -0.20500
C908        C  0.48039312  0.73156468  0.94953715    -0.08600
C909        C  0.50561343  0.74011054  0.93338289     0.30300
C910        C  0.52875399  0.77548886  0.93278872    -0.20500
C911        C  0.52817325  0.80353380  0.94828272    -0.08600
C912        C  0.50288926  0.79547054  0.96451713     0.30300
F913        F  0.50044735  0.82232343  0.97956675    -0.19100
H914        H  0.45952994  0.75442127  0.97753606     0.18700
H915        H  0.54758214  0.78083819  0.92004510     0.18700
F916        F  0.50729306  0.71465840  0.91773378    -0.19100
C917        C  0.98779144  0.25588701  0.83241963    -0.20500
C918        C  0.96772278  0.24589454  0.81487547    -0.08600
C919        C  0.98236316  0.26336137  0.79735109     0.30300
C920        C  0.01578706  0.29033814  0.79764975    -0.20500
C921        C  0.03550969  0.30047825  0.81536615    -0.08600
C922        C  0.02085345  0.28243366  0.83276080     0.30300
F923        F  0.03826317  0.29028783  0.85040350    -0.19100
H924        H  0.97778380  0.24312746  0.84620440     0.18700
H925        H  0.02617407  0.30333439  0.78398993     0.18700
F926        F  0.96401898  0.25512315  0.77999039    -0.19100
C927        C  0.71349767  0.01945399  0.88103679    -0.20500
C928        C  0.68727413  0.04016389  0.89389588    -0.08600
C929        C  0.67815055  0.08102572  0.88960043     0.30300
C930        C  0.69687545  0.10081069  0.87352376    -0.20500
C931        C  0.72440237  0.08007500  0.86115996    -0.08600
C932        C  0.73135013  0.03864550  0.86496303     0.30300
F933        F  0.75611542  0.01630476  0.85326759    -0.19100
H934        H  0.72019200  0.98769235  0.88328911     0.18700
H935        H  0.69090581  0.13266234  0.87117417     0.18700
F936        F  0.65227176  0.10220520  0.90121086    -0.19100
C937        C  0.79213996  0.30415347  0.86514372    -0.20500
C938        C  0.79480810  0.26466806  0.87239607    -0.08600
C939        C  0.80127859  0.25818489  0.89245727     0.30300
C940        C  0.81056794  0.29078172  0.90462413    -0.20500
C941        C  0.81428364  0.32977200  0.89669408    -0.08600
C942        C  0.80215314  0.33675696  0.87719956     0.30300
F943        F  0.80365998  0.37445055  0.86930822    -0.19100
H944        H  0.78713302  0.30942344  0.84964878     0.18700
H945        H  0.81907171  0.28480720  0.91968943     0.18700
F946        F  0.80306511  0.21998266  0.89974609    -0.19100
C947        C  0.03942527  0.48863966  0.88927788    -0.20500
C948        C  0.00256910  0.47207627  0.88259250    -0.08600
C949        C  0.99707137  0.46554713  0.86237224     0.30300
C950        C  0.03009762  0.46880894  0.84977835    -0.20500
C951        C  0.06854511  0.47796687  0.85728715    -0.08600
C952        C  0.07241903  0.49162296  0.87661610     0.30300
F953        F  0.10939293  0.50172065  0.88392503    -0.19100
H954        H  0.04397429  0.49561332  0.90463977     0.18700
H955        H  0.02688251  0.45823359  0.83480370     0.18700
F956        F  0.96140105  0.45152846  0.85506274    -0.19100
C957        C  0.52557649  0.58946142  0.85004380    -0.20500
C958        C  0.56562681  0.58946642  0.85704057    -0.08600
C959        C  0.57356946  0.57701438  0.87628297     0.30300
C960        C  0.54154456  0.57039643  0.88911472    -0.20500
C961        C  0.50130032  0.57666003  0.88295982    -0.08600
C962        C  0.49339109  0.58317906  0.86294420     0.30300
F963        F  0.45487963  0.58709706  0.85614310    -0.19100
H964        H  0.51895850  0.59817227  0.83509708     0.18700
H965        H  0.54856156  0.56388704  0.90427876     0.18700
F966        F  0.61219903  0.57443320  0.88310725    -0.19100
C967        C  0.70990807  0.77154315  0.88493798    -0.20500
C968        C  0.70266753  0.77912118  0.86498254    -0.08600
C969        C  0.69744085  0.81924425  0.85852839     0.30300
C970        C  0.69385011  0.85026250  0.87217120    -0.20500
C971        C  0.69589592  0.84170922  0.89218689    -0.08600
C972        C  0.70662011  0.80289916  0.89857731     0.30300
F973        F  0.70887267  0.79439841  0.91799819    -0.19100
H974        H  0.71478037  0.74092468  0.89012000     0.18700
H975        H  0.68524461  0.88024006  0.86720864     0.18700
F976        F  0.69054759  0.82795419  0.83937425    -0.19100
C977        C  0.80303941  0.57811155  0.89594798    -0.20500
C978        C  0.82898972  0.54716044  0.88956714    -0.08600
C979        C  0.83404354  0.54193544  0.86901317     0.30300
C980        C  0.81184197  0.56527005  0.85547171    -0.20500
C981        C  0.78381206  0.59434990  0.86190981    -0.08600
C982        C  0.78069730  0.60128147  0.88241011     0.30300
F983        F  0.75514638  0.63001169  0.88953895    -0.19100
H984        H  0.79859057  0.58324587  0.91147326     0.18700
H985        H  0.81528851  0.55924738  0.83995971     0.18700
F986        F  0.85987126  0.51345002  0.86185374    -0.19100
C987        C  0.04819648  0.27290668  0.95118488    -0.20500
C988        C  0.02948861  0.23527229  0.95441027    -0.08600
C989        C  0.98699768  0.23457668  0.95715248     0.30300
C990        C  0.96395462  0.27035847  0.95598658    -0.20500
C991        C  0.98239438  0.30777996  0.95181216    -0.08600
C992        C  0.02513725  0.30861938  0.94976842     0.30300
F993        F  0.04486150  0.34385985  0.94602756    -0.19100
H994        H  0.08071372  0.27453645  0.94891451     0.18700
H995        H  0.93132288  0.26848044  0.95774539     0.18700
F996        F  0.96747795  0.19913497  0.96070196    -0.19100
C997        C  0.96397430  0.06647861  0.86034094    -0.20500
C998        C  0.92554396  0.07549858  0.86786137    -0.08600
C999        C  0.91926159  0.07649800  0.88815292     0.30300
C1000       C  0.95226690  0.07383990  0.90077062    -0.20500
C1001       C  0.99175814  0.07112899  0.89314181    -0.08600
C1002       C  0.99721435  0.06444887  0.87292999     0.30300
F1003       F  0.03484126  0.05966646  0.86516602    -0.19100
H1004       H  0.96900965  0.06580288  0.84465328     0.18700
H1005       H  0.94718118  0.07821999  0.91631145     0.18700
F1006       F  0.88199132  0.08495175  0.89560659    -0.19100
C1007       C  0.18951321  0.20654988  0.87777487    -0.20500
C1008       C  0.18049884  0.21258911  0.89765518    -0.08600
C1009       C  0.18274094  0.25186656  0.90568126     0.30300
C1010       C  0.18905775  0.28494201  0.89344188    -0.20500
C1011       C  0.19447536  0.27909193  0.87328530    -0.08600
C1012       C  0.19696639  0.23961092  0.86564402     0.30300
F1013       F  0.20213190  0.23319316  0.84614031    -0.19100
H1014       H  0.18833469  0.17647866  0.87140350     0.18700
H1015       H  0.18733639  0.31526305  0.89950174     0.18700
F1016       F  0.17466566  0.25881330  0.92491259    -0.19100
C1017       C  0.44063482  0.97843825  0.87691057    -0.20500
C1018       C  0.44922016  0.96501644  0.85777287    -0.08600
C1019       C  0.48979336  0.96249894  0.85155488     0.30300
C1020       C  0.52088476  0.96636181  0.86528055    -0.20500
C1021       C  0.51171400  0.97398622  0.88501943    -0.08600
C1022       C  0.47178418  0.98291824  0.89053608     0.30300
F1023       F  0.46228160  0.99033179  0.90957036    -0.19100
H1024       H  0.40955798  0.98127066  0.88188531     0.18700
H1025       H  0.55180873  0.96007539  0.86084862     0.18700
F1026       F  0.49930370  0.95103637  0.83299152    -0.19100
C1027       C  0.50728808  0.81404311  0.80304400    -0.20500
C1028       C  0.46910148  0.79529175  0.80419620    -0.08600
C1029       C  0.46764855  0.75247071  0.80380392     0.30300
C1030       C  0.50350091  0.72939299  0.80277037    -0.20500
C1031       C  0.54180243  0.74818048  0.80245189    -0.08600
C1032       C  0.54312815  0.79100964  0.80236813     0.30300
F1033       F  0.57916099  0.81090129  0.80196590    -0.19100
H1034       H  0.50957976  0.84679714  0.80341430     0.18700
H1035       H  0.50127107  0.69663429  0.80294699     0.18700
F1036       F  0.43156663  0.73271037  0.80464051    -0.19100
C1037       C  0.30216553  0.74210944  0.87156598    -0.20500
C1038       C  0.31817466  0.77996279  0.87704132    -0.08600
C1039       C  0.33121120  0.78618140  0.89645024     0.30300
C1040       C  0.33343507  0.75342334  0.90921097    -0.20500
C1041       C  0.32320824  0.71442350  0.90260229    -0.08600
C1042       C  0.30498455  0.70935856  0.88421871     0.30300
F1043       F  0.29326731  0.67215129  0.87784235    -0.19100
H1044       H  0.29056789  0.73693881  0.85696892     0.18700
H1045       H  0.34725650  0.75785300  0.92341020     0.18700
F1046       F  0.34572067  0.82261018  0.90254257    -0.19100
C1047       C  0.21025034  0.96863176  0.89961425    -0.20500
C1048       C  0.17957622  0.99473334  0.89317210    -0.08600
C1049       C  0.17184721  0.99670597  0.87271893     0.30300
C1050       C  0.19579048  0.97496210  0.85918210    -0.20500
C1051       C  0.22826036  0.95094302  0.86559388    -0.08600
C1052       C  0.23434736  0.94719768  0.88612757     0.30300
F1053       F  0.26445853  0.92343266  0.89333656    -0.19100
H1054       H  0.21696908  0.96625478  0.91509962     0.18700
H1055       H  0.18998421  0.97834097  0.84365845     0.18700
F1056       F  0.14160094  0.02050351  0.86567162    -0.19100
C1057       C  0.01702307  0.49265781  0.98933684    -0.20500
C1058       C  0.97694536  0.50701511  0.98685459    -0.08600
C1059       C  0.96038535  0.53212862  0.00142382     0.30300
C1060       C  0.98357885  0.54261525  0.01791254    -0.20500
C1061       C  0.02373712  0.52830969  0.02029940    -0.08600
C1062       C  0.04009169  0.50299157  0.00578190     0.30300
F1063       F  0.07871620  0.48897910  0.00712686    -0.19100
H1064       H  0.03088403  0.47316699  0.97843157     0.18700
H1065       H  0.96999097  0.56226950  0.02882783     0.18700
F1066       F  0.92170898  0.54593926  0.99998689    -0.19100
C1067       C  0.23612690  0.63507954  0.01034989    -0.20500
C1068       C  0.21920306  0.59819396  0.01658752    -0.08600
C1069       C  0.23505512  0.56183267  0.00882118     0.30300
C1070       C  0.26738480  0.56266926  0.99548390    -0.20500
C1071       C  0.28483330  0.59958917  0.98957431    -0.08600
C1072       C  0.26844029  0.63592329  0.99708006     0.30300
F1073       F  0.28337399  0.67251107  0.99161241    -0.19100
H1074       H  0.22469406  0.66362369  0.01595377     0.18700
H1075       H  0.27893287  0.53418252  0.98986924     0.18700
F1076       F  0.21948949  0.52535558  0.01405290    -0.19100
C1077       C  0.29126336  0.28974347  0.25637311    -0.20500
C1078       C  0.26723722  0.29924246  0.23988787    -0.08600
C1079       C  0.22855124  0.28159736  0.23831478     0.30300
C1080       C  0.21477311  0.25476859  0.25271507    -0.20500
C1081       C  0.23909165  0.24483351  0.26903157    -0.08600
C1082       C  0.27753051  0.26295158  0.27073957     0.30300
F1083       F  0.30181977  0.25536751  0.28637793    -0.19100
H1084       H  0.32115709  0.30280076  0.25816024     0.18700
H1085       H  0.18485796  0.24170842  0.25102031     0.18700
F1086       F  0.20414655  0.28965075  0.22278411    -0.19100
C1087       C  0.34992169  0.47970072  0.25782158    -0.20500
C1088       C  0.34974713  0.49051473  0.23795494    -0.08600
C1089       C  0.34937538  0.53194059  0.23296426     0.30300
C1090       C  0.34916453  0.56169199  0.24762061    -0.20500
C1091       C  0.34862593  0.55085022  0.26750123    -0.08600
C1092       C  0.34900800  0.50939021  0.27246329     0.30300
F1093       F  0.34918341  0.49737532  0.29147405    -0.19100
H1094       H  0.35014406  0.44807826  0.26206082     0.18700
H1095       H  0.34895661  0.59331274  0.24338694     0.18700
F1096       F  0.34993449  0.54379926  0.21393288    -0.19100
C1097       C  0.18093273  0.45249533  0.11623419    -0.20500
C1098       C  0.19629700  0.48892047  0.10846171    -0.08600
C1099       C  0.23267206  0.50426674  0.11627056     0.30300
C1100       C  0.25221612  0.48492157  0.13180965    -0.20500
C1101       C  0.23645999  0.44937094  0.14031950    -0.08600
C1102       C  0.20089306  0.43268098  0.13193342     0.30300
F1103       F  0.18489229  0.39789334  0.13911505    -0.19100
H1104       H  0.15238693  0.44049943  0.11085274     0.18700
H1105       H  0.27982696  0.49859696  0.13738706     0.18700
F1106       F  0.24850341  0.53946453  0.10938742    -0.19100
C1107       C  0.48483549  0.05638845  0.00144585    -0.20500
C1108       C  0.47720001  0.03406112  0.01865158    -0.08600
C1109       C  0.49762185  0.99713698  0.02135857     0.30300
C1110       C  0.52482476  0.98312501  0.00717412    -0.20500
C1111       C  0.53239762  0.00541124  0.98994600    -0.08600
C1112       C  0.51204353  0.04237654  0.98726096     0.30300
F1113       F  0.51772675  0.06474130  0.97082757    -0.19100
H1114       H  0.46973376  0.08507745  0.99889914     0.18700
H1115       H  0.53993229  0.95444129  0.00972935     0.18700
F1116       F  0.49200028  0.97480638  0.03780983    -0.19100
C1117       C  0.24627227  0.14070179  0.99240531    -0.20500
C1118       C  0.22536821  0.10431640  0.98862179    -0.08600
C1119       C  0.23671707  0.06922642  0.99901059     0.30300
C1120       C  0.26705512  0.07121466  0.01336450    -0.20500
C1121       C  0.28746819  0.10773585  0.01721864    -0.08600
C1122       C  0.27728571  0.14236027  0.00638591     0.30300
F1123       F  0.29605735  0.17824289  0.00993360    -0.19100
H1124       H  0.23850721  0.16812050  0.98454980     0.18700
H1125       H  0.27467227  0.04411263  0.02151229     0.18700
F1126       F  0.21782413  0.03327933  0.99576006    -0.19100
C1127       C  0.29172969  0.23161180  0.14240272    -0.20500
C1128       C  0.30012719  0.27079024  0.13559834    -0.08600
C1129       C  0.30911196  0.27689886  0.11571134     0.30300
C1130       C  0.31435913  0.24369933  0.10334623    -0.20500
C1131       C  0.31100459  0.20439788  0.11079554    -0.08600
C1132       C  0.29773365  0.19832113  0.13007829     0.30300
F1133       F  0.29518855  0.16032431  0.13755037    -0.19100
H1134       H  0.28504228  0.22648080  0.15773696     0.18700
H1135       H  0.32513053  0.24857590  0.08853671     0.18700
F1136       F  0.31654931  0.31467663  0.10874658    -0.19100
C1137       C  0.28645563  0.80368753  0.24539540    -0.20500
C1138       C  0.24493332  0.80644242  0.24143988    -0.08600
C1139       C  0.21734258  0.78481889  0.25328653     0.30300
C1140       C  0.23129715  0.75900835  0.26802397    -0.20500
C1141       C  0.27297273  0.75393125  0.27111061    -0.08600
C1142       C  0.30050024  0.77757038  0.26003001     0.30300
F1143       F  0.34112263  0.77524176  0.26317063    -0.19100
H1144       H  0.30810815  0.82033264  0.23660260     0.18700
H1145       H  0.20951551  0.74193502  0.27654419     0.18700
F1146       F  0.17671022  0.78819648  0.25039582    -0.19100
C1147       C  0.13219236  0.01619857  0.24325039    -0.20500
C1148       C  0.16787823  0.99352532  0.24028907    -0.08600
C1149       C  0.20231749  0.00273401  0.25167525     0.30300
C1150       C  0.20069726  0.03339044  0.26583465    -0.20500
C1151       C  0.16511933  0.05611933  0.26875371    -0.08600
C1152       C  0.13085725  0.04746001  0.25721110     0.30300
F1153       F  0.09565644  0.06804511  0.25995854    -0.19100
H1154       H  0.10524940  0.00979321  0.23468035     0.18700
H1155       H  0.22746345  0.03936423  0.27461376     0.18700
F1156       F  0.23725288  0.98134023  0.24959207    -0.19100
C1157       C  0.18714942  0.78094131  0.11561041    -0.20500
C1158       C  0.19731402  0.77321341  0.13524828    -0.08600
C1159       C  0.20794799  0.73353430  0.14079917     0.30300
C1160       C  0.20269282  0.70164536  0.12764900    -0.20500
C1161       C  0.18755113  0.70896605  0.10879668    -0.08600
C1162       C  0.18230876  0.74905685  0.10240933     0.30300
F1163       F  0.16786061  0.75722001  0.08420308    -0.19100
H1164       H  0.17961723  0.81129186  0.11081401     0.18700
H1165       H  0.20774488  0.67090940  0.13264460     0.18700
F1166       F  0.22038378  0.72496861  0.15929887    -0.19100
C1167       C  0.30351682  0.02001457  0.13094006    -0.20500
C1168       C  0.32649647  0.99942125  0.11658642    -0.08600
C1169       C  0.33143097  0.95720277  0.11864228     0.30300
C1170       C  0.31136229  0.93619358  0.13386157    -0.20500
C1171       C  0.28741741  0.95695943  0.14778668    -0.08600
C1172       C  0.28446462  0.99924949  0.14631525     0.30300
F1173       F  0.26075997  0.02029542  0.15903092    -0.19100
H1174       H  0.29958622  0.05256206  0.13007850     0.18700
H1175       H  0.31315001  0.90342762  0.13430331     0.18700
F1176       F  0.35357809  0.93596456  0.10536789    -0.19100
C1177       C  0.78134005  0.24380824  0.24726846    -0.20500
C1178       C  0.74200140  0.24896072  0.23987333    -0.08600
C1179       C  0.71647364  0.27809744  0.24890958     0.30300
C1180       C  0.73049781  0.30187696  0.26457372    -0.20500
C1181       C  0.77034916  0.29777140  0.27141269    -0.08600
C1182       C  0.79552817  0.26803592  0.26272568     0.30300
F1183       F  0.83397558  0.26208738  0.26926661    -0.19100
H1184       H  0.80149707  0.22155381  0.24081903     0.18700
H1185       H  0.71048524  0.32428822  0.27100520     0.18700
F1186       F  0.67772758  0.28367686  0.24270494    -0.19100
C1187       C  0.63671817  0.00262368  0.25806328    -0.20500
C1188       C  0.67331617  0.98769251  0.26581856    -0.08600
C1189       C  0.71003716  0.00543356  0.25959253     0.30300
C1190       C  0.70978573  0.03743493  0.24614481    -0.20500
C1191       C  0.67309882  0.05263233  0.23858739    -0.08600
C1192       C  0.63645278  0.03457197  0.24466873     0.30300
F1193       F  0.60013727  0.04741429  0.23763538    -0.19100
H1194       H  0.60791371  0.98974590  0.26246250     0.18700
H1195       H  0.73851211  0.05042151  0.24170273     0.18700
F1196       F  0.74629846  0.99215163  0.26648804    -0.19100
C1197       C  0.50269179  0.22420336  0.19381239    -0.20500
C1198       C  0.53865647  0.24133954  0.20119803    -0.08600
C1199       C  0.53702464  0.28096543  0.20894419     0.30300
C1200       C  0.50045666  0.30307538  0.20891630    -0.20500
C1201       C  0.46500540  0.28673516  0.20056742    -0.08600
C1202       C  0.46649079  0.24676565  0.19317926     0.30300
F1203       F  0.43303277  0.22968272  0.18499713    -0.19100
H1204       H  0.50307860  0.19396974  0.18762665     0.18700
H1205       H  0.50038717  0.33377556  0.21452085     0.18700
F1206       F  0.57098418  0.29854934  0.21633463    -0.19100
C1207       C  0.49723154  0.07897280  0.14074132    -0.20500
C1208       C  0.50425804  0.07101175  0.12088949    -0.08600
C1209       C  0.54398308  0.06450449  0.11418453     0.30300
C1210       C  0.57662334  0.07171131  0.12678205    -0.20500
C1211       C  0.56956658  0.08430333  0.14617767    -0.08600
C1212       C  0.52961287  0.08510429  0.15343601     0.30300
F1213       F  0.52147253  0.09672785  0.17212903    -0.19100
H1214       H  0.46663276  0.08363813  0.14606982     0.18700
H1215       H  0.60719939  0.07031886  0.12103221     0.18700
F1216       F  0.55132102  0.05596138  0.09503486    -0.19100
C1217       C  0.03108866  0.98722467  0.99440602    -0.20500
C1218       C  0.03807137  0.02892106  0.99300135    -0.08600
C1219       C  0.01940207  0.05509595  0.00670450     0.30300
C1220       C  0.99286011  0.03995441  0.02087529    -0.20500
C1221       C  0.98401817  0.99845778  0.02167608    -0.08600
C1222       C  0.00426809  0.97201158  0.00852013     0.30300
F1223       F  0.99799701  0.93138035  0.00907541    -0.19100
H1224       H  0.04493469  0.96657017  0.98401142     0.18700
H1225       H  0.97853684  0.06094521  0.03095239     0.18700
F1226       F  0.02627976  0.09564990  0.00618693    -0.19100
C1227       C  0.74254146  0.91903810  0.02556077    -0.20500
C1228       C  0.78396377  0.91893750  0.02052652    -0.08600
C1229       C  0.79477664  0.91692661  0.00059852     0.30300
C1230       C  0.76478051  0.91666390  0.98609333    -0.20500
C1231       C  0.72338740  0.91749536  0.99110272    -0.08600
C1232       C  0.71250502  0.91785251  0.01103516     0.30300
F1233       F  0.67292329  0.91854204  0.01652483    -0.19100
H1234       H  0.73337198  0.92002987  0.04074909     0.18700
H1235       H  0.77397929  0.91596417  0.97090277     0.18700
F1236       F  0.83431823  0.91650866  0.99502790    -0.19100
C1237       C  0.02544215  0.95765550  0.15665239    -0.20500
C1238       C  0.06512278  0.95907671  0.14918457    -0.08600
C1239       C  0.07159842  0.97255011  0.12989477     0.30300
C1240       C  0.03853078  0.97921408  0.11759002    -0.20500
C1241       C  0.99915152  0.97166834  0.12436039    -0.08600
C1242       C  0.99251661  0.96338685  0.14422933     0.30300
F1243       F  0.95439553  0.95712737  0.15113838    -0.19100
H1244       H  0.01968525  0.94793216  0.17155261     0.18700
H1245       H  0.04392336  0.98588052  0.10226175     0.18700
F1246       F  0.10965641  0.97580544  0.12245077    -0.19100
C1247       C  0.79928426  0.02179135  0.13108312    -0.20500
C1248       C  0.82528347  0.04067928  0.11744758    -0.08600
C1249       C  0.83455715  0.08200644  0.12046586     0.30300
C1250       C  0.81622031  0.10394669  0.13596443    -0.20500
C1251       C  0.78932374  0.08496216  0.14912794    -0.08600
C1252       C  0.78165442  0.04344299  0.14660822     0.30300
F1253       F  0.75479958  0.02429284  0.15849343    -0.19100
H1254       H  0.79187537  0.98995128  0.12958519     0.18700
H1255       H  0.82139579  0.13628945  0.13707007     0.18700
F1256       F  0.85957049  0.10173669  0.10791813    -0.19100
C1257       C  0.96644021  0.76845324  0.05159209    -0.20500
C1258       C  0.98342190  0.80418599  0.05933771    -0.08600
C1259       C  0.02421202  0.80327304  0.06558870     0.30300
C1260       C  0.04718053  0.76747030  0.06426139    -0.20500
C1261       C  0.02968843  0.73132605  0.05734785    -0.08600
C1262       C  0.98901149  0.73221663  0.05094519     0.30300
F1263       F  0.97094781  0.69791797  0.04423577    -0.19100
H1264       H  0.93508784  0.76812332  0.04687885     0.18700
H1265       H  0.07817042  0.76753706  0.06952189     0.18700
F1266       F  0.04183031  0.83698763  0.07321041    -0.19100
C1267       C  0.48930310  0.49735721  0.01920315    -0.20500
C1268       C  0.52988431  0.51061256  0.02108362    -0.08600
C1269       C  0.54609700  0.53568876  0.00649478     0.30300
C1270       C  0.52238161  0.54658385  0.99034725    -0.20500
C1271       C  0.48197570  0.53286306  0.98834921    -0.08600
C1272       C  0.46559975  0.50825433  0.00307324     0.30300
F1273       F  0.42656308  0.49526701  0.00213647    -0.19100
H1274       H  0.47574747  0.47810261  0.03023807     0.18700
H1275       H  0.53592307  0.56580531  0.97929571     0.18700
F1276       F  0.58510039  0.54874565  0.00746704    -0.19100
C1277       C  0.76741025  0.47497164  0.99273964    -0.20500
C1278       C  0.78403701  0.43805405  0.98614506    -0.08600
C1279       C  0.76813319  0.40170442  0.99378260     0.30300
C1280       C  0.73719342  0.40250567  0.00781527    -0.20500
C1281       C  0.72118995  0.43936026  0.01475728    -0.08600
C1282       C  0.73647632  0.47575151  0.00687987     0.30300
F1283       F  0.72149013  0.51215914  0.01269213    -0.19100
H1284       H  0.77860711  0.50348340  0.98707311     0.18700
H1285       H  0.72613100  0.37392469  0.01346556     0.18700
F1286       F  0.78223703  0.36512139  0.98771399    -0.19100
C1287       C  0.50471796  0.24347633  0.04350664    -0.20500
C1288       C  0.47745821  0.23775479  0.05919248    -0.08600
C1289       C  0.47544809  0.26787205  0.07380243     0.30300
C1290       C  0.49995443  0.30238064  0.07284779    -0.20500
C1291       C  0.52803605  0.30795481  0.05756504    -0.08600
C1292       C  0.53021262  0.27796916  0.04279983     0.30300
F1293       F  0.55650100  0.28214753  0.02764096    -0.19100
H1294       H  0.50712270  0.22067676  0.03210327     0.18700
H1295       H  0.49741767  0.32464866  0.08449648     0.18700
F1296       F  0.44940304  0.26412768  0.08910784    -0.19100
C1297       C  0.47966478  0.47682513  0.12207487    -0.20500
C1298       C  0.51551038  0.45481205  0.12555568    -0.08600
C1299       C  0.52010295  0.43353564  0.14324945     0.30300
C1300       C  0.48724702  0.42955985  0.15573267    -0.20500
C1301       C  0.45000519  0.44707198  0.15086578    -0.08600
C1302       C  0.44684389  0.47308843  0.13479818     0.30300
F1303       F  0.41086701  0.49067066  0.13015219    -0.19100
H1304       H  0.47589849  0.49425777  0.10876223     0.18700
H1305       H  0.48975144  0.40960536  0.16828326     0.18700
F1306       F  0.55453521  0.41272938  0.14749198    -0.19100
C1307       C  0.71392256  0.33768424  0.12400693    -0.20500
C1308       C  0.70074644  0.32828094  0.10494210    -0.08600
C1309       C  0.69812926  0.28751928  0.09915835     0.30300
C1310       C  0.70115275  0.25718180  0.11325331    -0.20500
C1311       C  0.70677004  0.26735215  0.13310363    -0.08600
C1312       C  0.71675796  0.30746299  0.13810111     0.30300
F1313       F  0.72542560  0.31816696  0.15686972    -0.19100
H1314       H  0.71758254  0.36895831  0.12858132     0.18700
H1315       H  0.69491774  0.22621540  0.10887892     0.18700
F1316       F  0.68706542  0.27718114  0.08064507    -0.19100
C1317       C  0.78256743  0.77992694  0.24155593    -0.20500
C1318       C  0.76834627  0.73982640  0.23924978    -0.08600
C1319       C  0.74139451  0.72429841  0.25326563     0.30300
C1320       C  0.72885704  0.74861122  0.26901085    -0.20500
C1321       C  0.74294798  0.78883599  0.27118141    -0.08600
C1322       C  0.77022257  0.80408844  0.25726810     0.30300
F1323       F  0.78436084  0.84263878  0.25848774    -0.19100
H1324       H  0.80346498  0.79298379  0.23108491     0.18700
H1325       H  0.70780608  0.73585165  0.27949491     0.18700
F1326       F  0.72758674  0.68563682  0.25198339    -0.19100
C1327       C  0.87954392  0.49504993  0.25868752    -0.20500
C1328       C  0.84424608  0.48587142  0.26921464    -0.08600
C1329       C  0.80818262  0.50692016  0.26495590     0.30300
C1330       C  0.80771120  0.53696221  0.25054232    -0.20500
C1331       C  0.84337106  0.54729685  0.24045415    -0.08600
C1332       C  0.87937347  0.52580047  0.24460408     0.30300
F1333       F  0.91443676  0.53431282  0.23502970    -0.19100
H1334       H  0.90764067  0.47931014  0.26184645     0.18700
H1335       H  0.77958880  0.55282687  0.24760462     0.18700
F1336       F  0.77332013  0.49828762  0.27468612    -0.19100
C1337       C  0.01083987  0.72696607  0.20541492    -0.20500
C1338       C  0.97206054  0.74478880  0.20510942    -0.08600
C1339       C  0.96977703  0.78756116  0.20584727     0.30300
C1340       C  0.00515901  0.81150981  0.20593229    -0.20500
C1341       C  0.04392642  0.79375012  0.20507029    -0.08600
C1342       C  0.04624495  0.75092235  0.20528875     0.30300
F1343       F  0.08279445  0.73195448  0.20505882    -0.19100
H1344       H  0.01385952  0.69428861  0.20496742     0.18700
H1345       H  0.00207868  0.84419157  0.20591858     0.18700
F1346       F  0.93321834  0.80648243  0.20622866    -0.19100
C1347       C  0.98904377  0.57483820  0.15859195    -0.20500
C1348       C  0.94885505  0.57346447  0.15181036    -0.08600
C1349       C  0.94089433  0.55960878  0.13272476     0.30300
C1350       C  0.97273752  0.55471075  0.11962182    -0.20500
C1351       C  0.01256635  0.56399753  0.12541138    -0.08600
C1352       C  0.02101728  0.57015275  0.14541820     0.30300
F1353       F  0.05946464  0.57655311  0.15187028    -0.19100
H1354       H  0.99579663  0.58430815  0.17343285     0.18700
H1355       H  0.96565108  0.54790119  0.10448137     0.18700
F1356       F  0.90226687  0.55536123  0.12608665    -0.19100
C1357       C  0.79976106  0.82930448  0.12656063    -0.20500
C1358       C  0.82181149  0.82476951  0.10921664    -0.08600
C1359       C  0.83570625  0.78656503  0.10333157     0.30300
C1360       C  0.83245688  0.75405722  0.11602230    -0.20500
C1361       C  0.81612577  0.75988750  0.13479039    -0.08600
C1362       C  0.79676576  0.79677492  0.13942797     0.30300
F1363       F  0.77830523  0.80254496  0.15700364    -0.19100
H1364       H  0.78885960  0.85884666  0.13107917     0.18700
H1365       H  0.84660405  0.72566994  0.11191299     0.18700
F1366       F  0.85686252  0.78198755  0.08638690    -0.19100
C1367       C  0.69950271  0.56179726  0.15012203    -0.20500
C1368       C  0.72709076  0.59174446  0.14437224    -0.08600
C1369       C  0.72901492  0.60154084  0.12413018     0.30300
C1370       C  0.70673505  0.57953151  0.11001780    -0.20500
C1371       C  0.68183916  0.54714565  0.11561615    -0.08600
C1372       C  0.67716927  0.53983211  0.13604730     0.30300
F1373       F  0.65195686  0.51023889  0.14255275    -0.19100
H1374       H  0.69686676  0.55372466  0.16543336     0.18700
H1375       H  0.71062633  0.58655202  0.09464903     0.18700
F1376       F  0.75365219  0.63177127  0.11782311    -0.19100
C1377       C  0.79601993  0.27248084  0.75990603    -0.20500
C1378       C  0.76913100  0.24656788  0.77002926    -0.08600
C1379       C  0.72785576  0.24738098  0.76506771     0.30300
C1380       C  0.71421107  0.27252806  0.74997376    -0.20500
C1381       C  0.74116158  0.29779653  0.73953201    -0.08600
C1382       C  0.78225127  0.29801797  0.74490731     0.30300
F1383       F  0.80935088  0.32157752  0.73522983    -0.19100
H1384       H  0.82803414  0.27280886  0.76352483     0.18700
H1385       H  0.68223647  0.27179662  0.74628087     0.18700
F1386       F  0.70087910  0.22280876  0.77423005    -0.19100
C1387       C  0.63562217  0.49846547  0.74921196    -0.20500
C1388       C  0.67181532  0.48573715  0.74018610    -0.08600
C1389       C  0.70836175  0.50529209  0.74534197     0.30300
C1390       C  0.70823298  0.53737959  0.75876494    -0.20500
C1391       C  0.67186509  0.55076908  0.76734588    -0.08600
C1392       C  0.63551557  0.53050348  0.76262223     0.30300
F1393       F  0.59980329  0.54116002  0.77111147    -0.19100
H1394       H  0.60705255  0.48384967  0.74577905     0.18700
H1395       H  0.73672014  0.55209993  0.76226293     0.18700
F1396       F  0.74431083  0.49379147  0.73737550    -0.19100
C1397       C  0.97917322  0.48840956  0.51528577    -0.20500
C1398       C  0.97976024  0.52951695  0.52046644    -0.08600
C1399       C  0.00479303  0.55607295  0.50961944     0.30300
C1400       C  0.02910841  0.54160387  0.49429043    -0.20500
C1401       C  0.02966070  0.50028976  0.48949840    -0.08600
C1402       C  0.00402280  0.47378008  0.50011477     0.30300
F1403       F  0.00259140  0.43363359  0.49578749    -0.19100
H1404       H  0.96019078  0.46739618  0.52328668     0.18700
H1405       H  0.04806743  0.56276339  0.48636763     0.18700
F1406       F  0.00552683  0.59636860  0.51367340    -0.19100
C1407       C  0.78160721  0.63577082  0.50693496    -0.20500
C1408       C  0.78763665  0.60140666  0.51873283    -0.08600
C1409       C  0.76105823  0.56820615  0.51659090     0.30300
C1410       C  0.72922039  0.56972458  0.50304195    -0.20500
C1411       C  0.72288686  0.60440138  0.49157418    -0.08600
C1412       C  0.74964406  0.63736492  0.49352861     0.30300
F1413       F  0.74555211  0.67083908  0.48217220    -0.19100
H1414       H  0.80166381  0.66165471  0.50806962     0.18700
H1415       H  0.70896978  0.54400528  0.50179035     0.18700
F1416       F  0.76502508  0.53464322  0.52787728    -0.19100
C1417       C  0.79714652  0.46214201  0.60820992    -0.20500
C1418       C  0.82548130  0.49084930  0.61465985    -0.08600
C1419       C  0.83233586  0.49430693  0.63513861     0.30300
C1420       C  0.80961508  0.47160704  0.64869315    -0.20500
C1421       C  0.77916882  0.44504207  0.64230858    -0.08600
C1422       C  0.77417959  0.43964596  0.62176566     0.30300
F1423       F  0.74610056  0.41334677  0.61464119    -0.19100
H1424       H  0.79118537  0.45859975  0.59269674     0.18700
H1425       H  0.81453588  0.47635850  0.66421657     0.18700
F1426       F  0.86040740  0.52070112  0.64218852    -0.19100
C1427       C  0.79998734  0.78236438  0.75004881    -0.20500
C1428       C  0.77314366  0.79634083  0.73536666    -0.08600
C1429       C  0.73347490  0.78068873  0.73493730     0.30300
C1430       C  0.72086806  0.75305265  0.74920912    -0.20500
C1431       C  0.74747265  0.73988416  0.76402735    -0.08600
C1432       C  0.78738068  0.75440636  0.76420176     0.30300
F1433       F  0.81334199  0.74364883  0.77873180    -0.19100
H1434       H  0.83088584  0.79348531  0.75080356     0.18700
H1435       H  0.68968751  0.74255771  0.74899478     0.18700
F1436       F  0.70655228  0.79252161  0.72102968    -0.19100
C1437       C  0.85299573  0.01261833  0.77166936    -0.20500
C1438       C  0.85133541  0.05412963  0.76711094    -0.08600
C1439       C  0.84887994  0.06582854  0.74735596     0.30300
C1440       C  0.84733416  0.03640292  0.73254407    -0.20500
C1441       C  0.84891971  0.99486132  0.73713498    -0.08600
C1442       C  0.85212861  0.98326783  0.75688272     0.30300
F1443       F  0.85320389  0.94356758  0.76201110    -0.19100
H1444       H  0.85487699  0.00281686  0.78673590     0.18700
H1445       H  0.84502816  0.04612794  0.71748340     0.18700
F1446       F  0.84652007  0.10554420  0.74236500    -0.19100
C1447       C  0.80842106  0.78547768  0.61301946    -0.20500
C1448       C  0.80095700  0.77856310  0.63293949    -0.08600
C1449       C  0.79432940  0.73905329  0.63965053     0.30300
C1450       C  0.80066551  0.70645636  0.62700541    -0.20500
C1451       C  0.81333875  0.71317399  0.60760943    -0.08600
C1452       C  0.81406582  0.75295878  0.60026683     0.30300
F1453       F  0.82515906  0.76072176  0.58148881    -0.19100
H1454       H  0.81316968  0.81601136  0.60769789     0.18700
H1455       H  0.79929198  0.67602360  0.63287081     0.18700
F1456       F  0.78716402  0.73178677  0.65891742    -0.19100
C1457       C  0.48703699  0.04635346  0.48987890    -0.20500
C1458       C  0.48738366  0.00512087  0.48522482    -0.08600
C1459       C  0.51586577  0.97946996  0.49442407     0.30300
C1460       C  0.54224402  0.99478612  0.50871410    -0.20500
C1461       C  0.54014752  0.03563874  0.51421690    -0.08600
C1462       C  0.51284713  0.06153142  0.50431341     0.30300
F1463       F  0.51045704  0.10156604  0.50882254    -0.19100
H1464       H  0.46565079  0.06661906  0.48286466     0.18700
H1465       H  0.56306335  0.97439761  0.51602571     0.18700
F1466       F  0.51807039  0.93955191  0.48966956    -0.19100
C1467       C  0.73800263  0.07957775  0.50481480    -0.20500
C1468       C  0.73084067  0.11371877  0.51662572    -0.08600
C1469       C  0.75657478  0.14763529  0.51459965     0.30300
C1470       C  0.78804851  0.14740440  0.50065952    -0.20500
C1471       C  0.79387859  0.11374278  0.48829521    -0.08600
C1472       C  0.76879056  0.07959689  0.49074898     0.30300
F1473       F  0.77407282  0.04596349  0.47953473    -0.19100
H1474       H  0.71903860  0.05290181  0.50616737     0.18700
H1475       H  0.80704996  0.17399805  0.49912223     0.18700
F1476       F  0.75168152  0.18073112  0.52621418    -0.19100
C1477       C  0.70047175  0.19945017  0.62834062    -0.20500
C1478       C  0.69310456  0.20867350  0.60861522    -0.08600
C1479       C  0.69490047  0.24919176  0.60237090     0.30300
C1480       C  0.69642073  0.28004234  0.61625253    -0.20500
C1481       C  0.69659579  0.27062781  0.63628639    -0.08600
C1482       C  0.70194940  0.23018824  0.64220603     0.30300
F1483       F  0.70392987  0.21978795  0.66142289    -0.19100
H1484       H  0.70057575  0.16830505  0.63336136     0.18700
H1485       H  0.69402626  0.31117703  0.61135943     0.18700
F1486       F  0.69003351  0.25926146  0.58323593    -0.19100
C1487       C  0.66537372  0.97615052  0.62526453    -0.20500
C1488       C  0.68586740  0.99058421  0.60850752    -0.08600
C1489       C  0.72787349  0.98412256  0.60715973     0.30300
C1490       C  0.74901483  0.96577038  0.62267337    -0.20500
C1491       C  0.72879503  0.95263073  0.63974273    -0.08600
C1492       C  0.68639808  0.95667980  0.64056738     0.30300
F1493       F  0.66573175  0.94453480  0.65670829    -0.19100
H1494       H  0.63312015  0.98169556  0.62689874     0.18700
H1495       H  0.78168780  0.96266491  0.62154760     0.18700
F1496       F  0.74900361  0.99867141  0.59162485    -0.19100
C1497       C  0.22804707  0.78918208  0.74176735    -0.20500
C1498       C  0.24206677  0.74904573  0.73913734    -0.08600
C1499       C  0.26764686  0.73239400  0.75343317     0.30300
C1500       C  0.27895652  0.75548173  0.76979710    -0.20500
C1501       C  0.26514168  0.79572405  0.77234670    -0.08600
C1502       C  0.23928713  0.81222805  0.75812330     0.30300
F1503       F  0.22557987  0.85088565  0.75968761    -0.19100
H1504       H  0.20816182  0.80304146  0.73107429     0.18700
H1505       H  0.29894081  0.74171876  0.78047549     0.18700
F1506       F  0.28117014  0.69367728  0.75185914    -0.19100
C1507       C  0.13183939  0.53650098  0.74407878    -0.20500
C1508       C  0.16848693  0.55704922  0.74038702    -0.08600
C1509       C  0.20393555  0.54394306  0.74999431     0.30300
C1510       C  0.20219897  0.51210920  0.76350510    -0.20500
C1511       C  0.16547948  0.49188914  0.76730726    -0.08600
C1512       C  0.13036170  0.50397844  0.75722342     0.30300
F1513       F  0.09422341  0.48570983  0.76077779    -0.19100
H1514       H  0.10417787  0.54560596  0.73673800     0.18700
H1515       H  0.22962821  0.50339231  0.77116098     0.18700
F1516       F  0.24002348  0.56266478  0.74685459    -0.19100
C1517       C  0.03649198  0.78190656  0.68136438    -0.20500
C1518       C  0.04263334  0.75731676  0.69793080    -0.08600
C1519       C  0.01304949  0.75803910  0.71283895     0.30300
C1520       C  0.97850565  0.78309510  0.71112239    -0.20500
C1521       C  0.97217907  0.80701479  0.69430057    -0.08600
C1522       C  0.00174077  0.80596482  0.67941697     0.30300
F1523       F  0.99734359  0.82858744  0.66296221    -0.19100
H1524       H  0.05851020  0.78198237  0.66955082     0.18700
H1525       H  0.95612998  0.78303710  0.72277030     0.18700
F1526       F  0.01775281  0.73509512  0.72914754    -0.19100
C1527       C  0.06459866  0.56914248  0.63728645    -0.20500
C1528       C  0.05612637  0.58839283  0.65514383    -0.08600
C1529       C  0.01577757  0.59620524  0.66048372     0.30300
C1530       C  0.98524392  0.59145833  0.64659988    -0.20500
C1531       C  0.99495212  0.57887780  0.62746618    -0.08600
C1532       C  0.03409659  0.56414316  0.62345541     0.30300
F1533       F  0.04387836  0.54866271  0.60561947    -0.19100
H1534       H  0.09558663  0.56179561  0.63327219     0.18700
H1535       H  0.95490829  0.60163785  0.65027122     0.18700
F1536       F  0.00662348  0.61392780  0.67791711    -0.19100
C1537       C  0.48078389  0.54381503  0.51842882    -0.20500
C1538       C  0.47666310  0.50194520  0.52101073    -0.08600
C1539       C  0.50006592  0.47560274  0.50909995     0.30300
C1540       C  0.52606963  0.49105916  0.49469126    -0.20500
C1541       C  0.52881206  0.53287233  0.49163113    -0.08600
C1542       C  0.50626061  0.55918187  0.50385062     0.30300
F1543       F  0.50882840  0.59999794  0.50172387    -0.19100
H1544       H  0.46363689  0.56475022  0.52744732     0.18700
H1545       H  0.54304640  0.47028036  0.48551444     0.18700
F1546       F  0.49807343  0.43479720  0.51137389    -0.19100
C1547       C  0.20916978  0.41948751  0.50872619    -0.20500
C1548       C  0.22103024  0.41573516  0.48908547    -0.08600
C1549       C  0.26251220  0.41065832  0.48471352     0.30300
C1550       C  0.29153058  0.41059425  0.49970079    -0.20500
C1551       C  0.27995995  0.41624787  0.51932176    -0.08600
C1552       C  0.23821626  0.42013693  0.52371155     0.30300
F1553       F  0.22530278  0.42485471  0.54246921    -0.19100
H1554       H  0.17742461  0.42339271  0.51243857     0.18700
H1555       H  0.32326157  0.40721282  0.49586022     0.18700
F1556       F  0.27504808  0.40571519  0.46590782    -0.19100
C1557       C  0.50161443  0.29902480  0.54613926    -0.20500
C1558       C  0.47440925  0.30260889  0.56201203    -0.08600
C1559       C  0.47388056  0.27150657  0.57607607     0.30300
C1560       C  0.49954720  0.23786897  0.57424252    -0.20500
C1561       C  0.52737756  0.23444221  0.55866158    -0.08600
C1562       C  0.52828104  0.26561727  0.54459671     0.30300
F1563       F  0.55425242  0.26346111  0.52920939    -0.19100
H1564       H  0.50293047  0.32265572  0.53516158     0.18700
H1565       H  0.49805412  0.21450277  0.58535671     0.18700
F1566       F  0.44806638  0.27328119  0.59156129    -0.19100
C1567       C  0.53484647  0.48215363  0.61861894    -0.20500
C1568       C  0.49536554  0.47287452  0.62470341    -0.08600
C1569       C  0.48789768  0.46340349  0.64441249     0.30300
C1570       C  0.52024879  0.45775671  0.65721104    -0.20500
C1571       C  0.56017952  0.46052534  0.65027737    -0.08600
C1572       C  0.56737000  0.47573719  0.63134117     0.30300
F1573       F  0.60580035  0.48072530  0.62460074    -0.19100
H1574       H  0.54089847  0.49002737  0.60347724     0.18700
H1575       H  0.51403287  0.44662859  0.67184665     0.18700
F1576       F  0.44961089  0.45567146  0.65073158    -0.19100
C1577       C  0.33520346  0.56818657  0.62750753    -0.20500
C1578       C  0.31392263  0.54751063  0.61249921    -0.08600
C1579       C  0.27127968  0.54791937  0.61318163     0.30300
C1580       C  0.25074273  0.56783979  0.62828442    -0.20500
C1581       C  0.27148334  0.58835416  0.64345493    -0.08600
C1582       C  0.31426145  0.58830883  0.64289545     0.30300
F1583       F  0.33574561  0.60806500  0.65692464    -0.19100
H1584       H  0.36805867  0.56776843  0.62764585     0.18700
H1585       H  0.21787654  0.56703108  0.62803518     0.18700
F1586       F  0.24902083  0.52877727  0.59918755    -0.19100
C1587       C  0.20315938  0.27819188  0.75678091    -0.20500
C1588       C  0.22929014  0.29301410  0.77159182    -0.08600
C1589       C  0.26904933  0.27764309  0.77252956     0.30300
C1590       C  0.28264491  0.24989002  0.75847836    -0.20500
C1591       C  0.25699769  0.23629183  0.74332751    -0.08600
C1592       C  0.21678390  0.25005976  0.74281434     0.30300
F1593       F  0.19151761  0.23848851  0.72811964    -0.19100
H1594       H  0.17218116  0.28888301  0.75574811     0.18700
H1595       H  0.31390631  0.23981815  0.75908689     0.18700
F1596       F  0.29525041  0.28999204  0.78668758    -0.19100
C1597       C  0.30070372  0.04230313  0.75034526    -0.20500
C1598       C  0.33542206  0.05029450  0.73904152    -0.08600
C1599       C  0.37039723  0.02661633  0.74212872     0.30300
C1600       C  0.37056678  0.99606857  0.75630590    -0.20500
C1601       C  0.33602654  0.98830129  0.76781375    -0.08600
C1602       C  0.30091526  0.01188030  0.76462338     0.30300
F1603       F  0.26688087  0.00619172  0.77546981    -0.19100
H1604       H  0.27342031  0.06013956  0.74836795     0.18700
H1605       H  0.39797981  0.97842306  0.75824238     0.18700
F1606       F  0.40433836  0.03238728  0.73121979    -0.19100
C1607       C  0.54029707  0.25034070  0.70264324    -0.20500
C1608       C  0.53815571  0.29304262  0.70335201    -0.08600
C1609       C  0.49960749  0.31102661  0.70523558     0.30300
C1610       C  0.46442761  0.28699079  0.70581494    -0.20500
C1611       C  0.46642912  0.24432917  0.70465103    -0.08600
C1612       C  0.50509638  0.22625658  0.70336486     0.30300
F1613       F  0.50899637  0.18541294  0.70194714    -0.19100
H1614       H  0.56940891  0.23539843  0.70118887     0.18700
H1615       H  0.43529218  0.30206032  0.70674846     0.18700
F1616       F  0.49556991  0.35194419  0.70562191    -0.19100
C1617       C  0.29036436  0.27800400  0.62587490    -0.20500
C1618       C  0.29811364  0.28454460  0.64588675    -0.08600
C1619       C  0.30251751  0.32441975  0.65294486     0.30300
C1620       C  0.30634786  0.35608804  0.63968037    -0.20500
C1621       C  0.30477522  0.34824353  0.61954102    -0.08600
C1622       C  0.29368057  0.30985905  0.61267837     0.30300
F1623       F  0.29208937  0.30199073  0.59315390    -0.19100
H1624       H  0.28577917  0.24763545  0.62020013     0.18700
H1625       H  0.31486771  0.38587680  0.64501919     0.18700
F1626       F  0.30843575  0.33224908  0.67228244    -0.19100
C1627       C  0.47772941  0.09055679  0.65171445    -0.20500
C1628       C  0.43841685  0.09678064  0.64440410    -0.08600
C1629       C  0.43090017  0.09167740  0.62428408     0.30300
C1630       C  0.46303767  0.08491295  0.61147261    -0.20500
C1631       C  0.50305583  0.08363888  0.61852436    -0.08600
C1632       C  0.50999976  0.08421465  0.63886090     0.30300
F1633       F  0.54811938  0.08117272  0.64626239    -0.19100
H1634       H  0.48405052  0.09378354  0.66720540     0.18700
H1635       H  0.45679373  0.08384400  0.59590789     0.18700
F1636       F  0.39288611  0.09569210  0.61684631    -0.19100
C1637       C  0.99482684  0.99908473  0.48586710    -0.20500
C1638       C  0.98615728  0.04053096  0.48455545    -0.08600
C1639       C  0.00646404  0.06764586  0.49740143     0.30300
C1640       C  0.03307597  0.05310020  0.51174340    -0.20500
C1641       C  0.03978651  0.01149057  0.51365925    -0.08600
C1642       C  0.02122216  0.98464330  0.50023675     0.30300
F1643       F  0.02789485  0.94409805  0.50129097    -0.19100
H1644       H  0.98052115  0.97760322  0.47602668     0.18700
H1645       H  0.04684103  0.07421250  0.52195005     0.18700
F1646       F  0.00026365  0.10825726  0.49643771    -0.19100
C1647       C  0.28318265  0.96346091  0.50313865    -0.20500
C1648       C  0.28355250  0.93215558  0.48924121    -0.08600
C1649       C  0.25281632  0.90280925  0.48950957     0.30300
C1650       C  0.22218611  0.90466577  0.50365056    -0.20500
C1651       C  0.22124033  0.93627063  0.51754330    -0.08600
C1652       C  0.25214398  0.96582590  0.51710936     0.30300
F1653       F  0.25280085  0.99664007  0.53031634    -0.19100
H1654       H  0.30669318  0.98645000  0.50297467     0.18700
H1655       H  0.19885199  0.88150771  0.50357039     0.18700
F1656       F  0.25263118  0.87223217  0.47615561    -0.19100
C1657       C  0.18388904  0.79500531  0.60174766    -0.20500
C1658       C  0.18264475  0.83484207  0.60892888    -0.08600
C1659       C  0.19356883  0.84293314  0.62838583     0.30300
C1660       C  0.20013864  0.81101495  0.64118428    -0.20500
C1661       C  0.19505844  0.77085831  0.63473001    -0.08600
C1662       C  0.18982856  0.76293003  0.61463612     0.30300
F1663       F  0.18700088  0.72442521  0.60771880    -0.19100
H1664       H  0.17620207  0.78842270  0.58665894     0.18700
H1665       H  0.20523917  0.81794409  0.65648632     0.18700
F1666       F  0.19440412  0.88147684  0.63540545    -0.19100
C1667       C  0.02295246  0.73243102  0.55417735    -0.20500
C1668       C  0.98025096  0.73361700  0.55520808    -0.08600
C1669       C  0.96118915  0.77183407  0.55511612     0.30300
C1670       C  0.98431482  0.80761217  0.55462200    -0.20500
C1671       C  0.02708741  0.80654901  0.55397939    -0.08600
C1672       C  0.04610470  0.76824429  0.55340197     0.30300
F1673       F  0.08715557  0.76519030  0.55283400    -0.19100
H1674       H  0.03860620  0.70356991  0.55421584     0.18700
H1675       H  0.96853574  0.83638505  0.55512977     0.18700
F1676       F  0.92020847  0.77483156  0.55650351    -0.19100
C1677       C  0.95128646  0.97231749  0.60556129    -0.20500
C1678       C  0.99070824  0.97583396  0.61318061    -0.08600
C1679       C  0.99614173  0.98446261  0.63321178     0.30300
C1680       C  0.96299984  0.98275357  0.64584541    -0.20500
C1681       C  0.92485654  0.97217106  0.63846311    -0.08600
C1682       C  0.91839460  0.97009815  0.61820979     0.30300
F1683       F  0.88128658  0.96028012  0.61093561    -0.19100
H1684       H  0.94625603  0.96657513  0.59011264     0.18700
H1685       H  0.96806605  0.98451729  0.66151595     0.18700
F1686       F  0.03372952  0.99055421  0.64081227    -0.19100
C1687       C  0.19462024  0.06674254  0.64924457    -0.20500
C1688       C  0.22358750  0.09510767  0.64310803    -0.08600
C1689       C  0.22754636  0.10173345  0.62261207     0.30300
C1690       C  0.20509398  0.07894373  0.60886794    -0.20500
C1691       C  0.17795197  0.04880378  0.61498020    -0.08600
C1692       C  0.17216575  0.04394496  0.63550155     0.30300
F1693       F  0.14517947  0.01646397  0.64247524    -0.19100
H1694       H  0.19033820  0.06104258  0.66472030     0.18700
H1695       H  0.21010584  0.08396579  0.59338801     0.18700
F1696       F  0.25381254  0.12992991  0.61566426    -0.19100
loop_ 
_geom_bond_atom_site_label_1 
_geom_bond_atom_site_label_2 
_geom_bond_distance 
_geom_bond_site_symmetry_2 
_ccdc_geom_bond_type 
Zn1           O5   1.936       .  S
Zn1           O6   1.978       .  S
Zn1          O10   2.013       .  S
Zn1          O17   2.075       .  S
Zn2           O5   1.903       .  S
Zn2           O7   1.979       .  S
Zn2           O9   1.978       .  S
Zn2          O13   1.999       .  S
Zn3           O5   1.950       .  S
Zn3           O8   2.048       .  S
Zn3          O11   2.152   1_565  S
Zn3          O14   2.095   1_565  S
Zn4           O5   1.896       .  S
Zn4          O12   1.939       .  S
Zn4          O15   1.967       .  S
Zn4          O16   2.025       .  S
O6           C18   1.271       .  A
O7           C19   1.267   1_565  A
O8           C20   1.281       .  A
O9           C18   1.274       .  A
O10          C20   1.278       .  A
O11          C19   1.290       .  A
O12          C21   1.268       .  A
O13          C22   1.273       .  A
O14          C21   1.287   1_545  A
O15          C22   1.269       .  A
O16          C23   1.272       .  A
O17          C23   1.278       .  A
C18        C1658   1.456       .  S
C19        C1691   1.511       .  S
C20        C1651   1.485       .  S
C21        C1641   1.476   1_565  S
C22        C1678   1.464   1_455  S
C23        C1671   1.503       .  S
Zn24         O28   1.909       .  S
Zn24         O29   1.976       .  S
Zn24         O33   1.982       .  S
Zn24         O40   1.983       .  S
Zn25         O28   1.959       .  S
Zn25         O30   2.048       .  S
Zn25         O32   2.151       .  S
Zn25         O36   2.104       .  S
Zn26         O28   1.945       .  S
Zn26         O31   2.001       .  S
Zn26         O34   2.025       .  S
Zn26         O37   2.085       .  S
Zn27         O28   1.908       .  S
Zn27         O35   2.011       .  S
Zn27         O38   1.953       .  S
Zn27         O39   1.978       .  S
O29          C41   1.267       .  A
O30          C42   1.282       .  A
O31          C43   1.273       .  A
O32          C41   1.290       .  A
O33          C43   1.273       .  A
O34          C42   1.280       .  A
O35          C44   1.271       .  A
O36          C45   1.286       .  A
O37          C44   1.280       .  A
O38          C45   1.269       .  A
O39          C46   1.269       .  A
O40          C46   1.272       .  A
C41        C1688   1.511       .  S
C42        C1598   1.486       .  S
C43        C1628   1.467       .  S
C44        C1611   1.502       .  S
C45        C1591   1.479       .  S
C46        C1618   1.466       .  S
Zn47         O51   1.918       .  S
Zn47         O52   2.035       .  S
Zn47         O56   1.975       .  S
Zn47         O63   1.981       .  S
Zn48         O51   1.947       .  S
Zn48         O53   2.062       .  S
Zn48         O55   2.072       .  S
Zn48         O59   1.993       .  S
Zn49         O51   1.937       .  S
Zn49         O54   1.990       .  S
Zn49         O57   1.997       .  S
Zn49         O60   2.007       .  S
Zn50         O51   1.973       .  S
Zn50         O58   2.095       .  S
Zn50         O61   2.067       .  S
Zn50         O62   2.009       .  S
O52          C64   1.275       .  A
O53          C65   1.282       .  A
O54          C66   1.267       .  A
O55          C64   1.279       .  A
O56          C66   1.269       .  A
O57          C65   1.274       .  A
O58          C67   1.282       .  A
O59          C68   1.273       .  A
O60          C67   1.273       .  A
O61          C68   1.285       .  A
O62          C69   1.270       .  A
O63          C69   1.270       .  A
C64        C1558   1.497       .  S
C65        C1551   1.488       .  S
C66        C1621   1.448       .  S
C67        C1578   1.502       .  S
C68        C1538   1.487       .  S
C69        C1568   1.460       .  S
Zn70         O74   1.877       .  S
Zn70         O75   1.961       .  S
Zn70         O79   1.942       .  S
Zn70         O86   2.004       .  S
Zn71         O74   1.896       .  S
Zn71         O76   1.950       .  S
Zn71         O78   2.002       .  S
Zn71         O82   1.962       .  S
Zn72         O74   1.945       .  S
Zn72         O77   2.104       .  S
Zn72         O80   2.161       .  S
Zn72         O83   2.049       .  S
Zn73         O74   1.946       .  S
Zn73         O81   2.026       .  S
Zn73         O84   1.992       .  S
Zn73         O85   2.094       .  S
O75          C87   1.267       .  A
O76          C88   1.267       .  A
O77          C89   1.288       .  A
O78          C87   1.272       .  A
O79          C89   1.269       .  A
O80          C88   1.291       .  A
O81          C90   1.281       .  A
O82          C91   1.271       .  A
O83          C90   1.282       .  A
O84          C91   1.270       .  A
O85          C92   1.282       .  A
O86          C92   1.272       .  A
C87        C1661   1.465       .  S
C88        C1581   1.506       .  S
C89        C1498   1.488       .  S
C90        C1508   1.487       .  S
C91        C1528   1.456       .  S
C92        C1518   1.497       .  S
Zn93         O97   1.964       .  S
Zn93         O98   2.047       .  S
Zn93        O102   1.985       .  S
Zn93        O109   2.104       .  S
Zn94         O97   1.947       .  S
Zn94         O99   2.124       .  S
Zn94        O101   2.041       .  S
Zn94        O105   2.082       .  S
Zn95         O97   1.914       .  S
Zn95        O100   1.961       .  S
Zn95        O103   1.974       .  S
Zn95        O106   2.000       .  S
Zn96         O97   1.894       .  S
Zn96        O104   1.981       .  S
Zn96        O107   1.942       .  S
Zn96        O108   2.002       .  S
O98         C110   1.281       .  A
O99         C111   1.287       .  A
O100        C112   1.271       .  A
O101        C110   1.281       .  A
O102        C112   1.271       .  A
O103        C111   1.267       .  A
O104        C113   1.269       .  A
O105        C114   1.284       .  A
O106        C113   1.271       .  A
O107        C114   1.268       .  A
O108        C115   1.271       .  A
O109        C115   1.282       .  A
C110       C1468   1.488       .  S
C111       C1488   1.490   1_545  S
C112       C1478   1.462       .  S
C113       C1631   1.470       .  S
C114       C1461   1.477       .  S
C115       C1561   1.499       .  S
Zn116       O120   1.926       .  S
Zn116       O121   1.986       .  S
Zn116       O125   2.003       .  S
Zn116       O132   2.012       .  S
Zn117       O120   1.909       .  S
Zn117       O122   2.032       .  S
Zn117       O124   1.973       .  S
Zn117       O128   1.979       .  S
Zn118       O120   1.929       .  S
Zn118       O123   2.041       .  S
Zn118       O126   2.065       .  S
Zn118       O129   1.989       .  S
Zn119       O120   1.963       .  S
Zn119       O127   2.065       .  S
Zn119       O130   2.004       .  S
Zn119       O131   2.093       .  S
O121        C133   1.266       .  A
O122        C134   1.275       .  A
O123        C135   1.280       .  A
O124        C133   1.270       .  A
O125        C135   1.276       .  A
O126        C134   1.278       .  A
O127        C136   1.284       .  A
O128        C137   1.270       .  A
O129        C136   1.273       .  A
O130        C137   1.270       .  A
O131        C138   1.283       .  A
O132        C138   1.273       .  A
C133       C1681   1.447       .  S
C134       C1521   1.496       .  S
C135       C1441   1.481       .  S
C136       C1428   1.490       .  S
C137       C1448   1.457       .  S
C138       C1491   1.495       .  S
Zn139       O143   1.944       .  S
Zn139       O144   2.007       .  S
Zn139       O148   2.010       .  S
Zn139       O155   2.067       .  S
Zn140       O143   1.918       .  S
Zn140       O145   1.964       .  S
Zn140       O147   1.973       .  S
Zn140       O151   1.969       .  S
Zn141       O143   1.962       .  S
Zn141       O146   2.039       .  S
Zn141       O149   2.142       .  S
Zn141       O152   2.100       .  S
Zn142       O143   1.917       .  S
Zn142       O150   1.976       .  S
Zn142       O153   1.989       .  S
Zn142       O154   2.032       .  S
O144        C156   1.272       .  A
O145        C157   1.266       .  A
O146        C158   1.281       .  A
O147        C156   1.270       .  A
O148        C158   1.279       .  A
O149        C157   1.289       .  A
O150        C159   1.270       .  A
O151        C160   1.270       .  A
O152        C159   1.286       .  A
O153        C160   1.272       .  A
O154        C161   1.274       .  A
O155        C161   1.279       .  A
C156       C1451   1.469       .  S
C157       C1418   1.502       .  S
C158       C1408   1.484       .  S
C159       C1398   1.490       .  S
C160       C1531   1.466       .  S
C161       C1668   1.500       .  S
Zn162       O166   1.956       .  S
Zn162       O167   2.102       .  S
Zn162       O171   2.031       .  S
Zn162       O178   2.143       .  S
Zn163       O166   1.896       .  S
Zn163       O168   2.010       .  S
Zn163       O170   1.952       .  S
Zn163       O174   1.959       .  S
Zn164       O166   1.936       .  S
Zn164       O169   2.019       .  S
Zn164       O172   2.083       .  S
Zn164       O175   2.009       .  S
Zn165       O166   1.913       .  S
Zn165       O173   1.985       .  S
Zn165       O176   1.986       .  S
Zn165       O177   1.968       .  S
O167        C179   1.285       .  A
O168        C180   1.272       .  A
O169        C181   1.280       .  A
O170        C179   1.268       .  A
O171        C181   1.280       .  A
O172        C180   1.281       .  A
O173        C182   1.272       .  A
O174        C183   1.268       .  A
O175        C182   1.273       .  A
O176        C183   1.273       .  A
O177        C184   1.266       .  A
O178        C184   1.289       .  A
C179       C1381   1.488       .  S
C180       C1608   1.500       .  S
C181       C1388   1.485       .  S
C182       C1571   1.467       .  S
C183       C1481   1.463       .  S
C184       C1421   1.505       .  S
Zn185       O189   1.963       .  S
Zn185       O190   2.045       .  S
Zn185       O194   2.153       .  S
Zn185       O201   2.091       .  S
Zn186       O189   1.950       .  S
Zn186       O191   1.996       .  S
Zn186       O193   2.015       .  S
Zn186       O197   2.092       .  S
Zn187       O189   1.914       .  S
Zn187       O192   1.971       .  S
Zn187       O195   1.970       .  S
Zn187       O198   1.975       .  S
Zn188       O189   1.907       .  S
Zn188       O196   1.971       .  S
Zn188       O199   2.029       .  S
Zn188       O200   1.942       .  S
O190        C202   1.282       .  A
O191        C203   1.271       .  A
O192        C204   1.266       .  A
O193        C202   1.279       .  A
O194        C204   1.290       .  A
O195        C203   1.271       .  A
O196        C205   1.269       .  A
O197        C206   1.281       .  A
O198        C205   1.271       .  A
O199        C206   1.273       .  A
O200        C207   1.268       .  A
O201        C207   1.285       .  A
C202       C1331   1.483       .  S
C203       C1348   1.464       .  S
C204       C1368   1.506       .  S
C205       C1361   1.462       .  S
C206       C1338   1.506       .  S
C207       C1318   1.486       .  S
Zn208       O212   1.900       .  S
Zn208       O213   1.954       .  S
Zn208       O217   1.949       .  S
Zn208       O224   1.972       .  S
Zn209       O212   1.953       .  S
Zn209       O214   2.058       .  S
Zn209       O216   2.162       .  S
Zn209       O220   2.092       .  S
Zn210       O212   1.954       .  S
Zn210       O215   2.026       .  S
Zn210       O218   2.032       .  S
Zn210       O221   2.100       .  S
Zn211       O212   1.894       .  S
Zn211       O219   2.007       .  S
Zn211       O222   1.943       .  S
Zn211       O223   1.976       .  S
O213        C225   1.265       .  A
O214        C226   1.284       .  A
O215        C227   1.274       .  A
O216        C225   1.291       .  A
O217        C227   1.268       .  A
O218        C226   1.282       .  A
O219        C228   1.273       .  A
O220        C229   1.285       .  A
O221        C228   1.282       .  A
O222        C229   1.268       .  A
O223        C230   1.268       .  A
O224        C230   1.269       .  A
C225       C1371   1.509       .  S
C226       C1281   1.493       .  S
C227       C1308   1.468       .  S
C228       C1291   1.500       .  S
C229       C1268   1.484       .  S
C230       C1298   1.463       .  S
Zn231       O235   1.898       .  S
Zn231       O236   1.960       .  S
Zn231       O240   1.979       .  S
Zn231       O247   2.029       .  S
Zn232       O235   1.926       .  S
Zn232       O237   2.020       .  S
Zn232       O239   1.984       .  S
Zn232       O243   2.015       .  S
Zn233       O235   1.949       .  S
Zn233       O238   2.002       .  S
Zn233       O241   2.103   1_565  S
Zn233       O244   2.059   1_565  S
Zn234       O235   1.924       .  S
Zn234       O242   1.999       .  S
Zn234       O245   2.037       .  S
Zn234       O246   2.082       .  S
O236        C248   1.270       .  A
O237        C249   1.276   1_565  A
O238        C250   1.270       .  A
O239        C248   1.267       .  A
O240        C250   1.271       .  A
O241        C249   1.284       .  A
O242        C251   1.275       .  A
O243        C252   1.278       .  A
O244        C251   1.286   1_545  A
O245        C252   1.279       .  A
O246        C253   1.279       .  A
O247        C253   1.273       .  A
C248       C1358   1.443       .  S
C249       C1248   1.507       .  S
C250       C1241   1.456       .  S
C251       C1221   1.488       .  S
C252       C1228   1.484       .  S
C253       C1258   1.495       .  S
Zn254       O258   1.966       .  S
Zn254       O259   2.132       .  S
Zn254       O263   2.040       .  S
Zn254       O270   2.095       .  S
Zn255       O258   1.931       .  S
Zn255       O260   1.993       .  S
Zn255       O262   1.972       .  S
Zn255       O266   1.983       .  S
Zn256       O258   1.944       .  S
Zn256       O261   2.016       .  S
Zn256       O264   1.990       .  S
Zn256       O267   2.069       .  S
Zn257       O258   1.930       .  S
Zn257       O265   2.036       .  S
Zn257       O268   2.003       .  S
Zn257       O269   1.980       .  S
O259        C271   1.287       .  A
O260        C272   1.272       .  A
O261        C273   1.278       .  A
O262        C271   1.267       .  A
O263        C273   1.280       .  A
O264        C272   1.270       .  A
O265        C274   1.275       .  A
O266        C275   1.271       .  A
O267        C274   1.279       .  A
O268        C275   1.274       .  A
O269        C276   1.271       .  A
O270        C276   1.286       .  A
C271       C1251   1.489       .  S
C272       C1211   1.468       .  S
C273       C1191   1.489       .  S
C274       C1198   1.495       .  S
C275       C1311   1.472       .  S
C276       C1178   1.492       .  S
Zn277       O281   1.957       .  S
Zn277       O282   2.031       .  S
Zn277       O286   2.091       .  S
Zn277       O293   1.989       .  S
Zn278       O281   1.966       .  S
Zn278       O283   2.076       .  S
Zn278       O285   2.037       .  S
Zn278       O289   2.123       .  S
Zn279       O281   1.918       .  S
Zn279       O284   2.025       .  S
Zn279       O287   1.959       .  S
Zn279       O290   1.988       .  S
Zn280       O281   1.932       .  S
Zn280       O288   1.997       .  S
Zn280       O291   1.994       .  S
Zn280       O292   1.991       .  S
O282        C294   1.279       .  A
O283        C295   1.282       .  A
O284        C296   1.272       .  A
O285        C294   1.279       .  A
O286        C296   1.281       .  A
O287        C295   1.269       .  A
O288        C297   1.273       .  A
O289        C298   1.286       .  A
O290        C297   1.271       .  A
O291        C298   1.269       .  A
O292        C299   1.273       .  A
O293        C299   1.272       .  A
C294       C1148   1.486       .  S
C295       C1138   1.476       .  S
C296       C1341   1.506       .  S
C297       C1158   1.473       .  S
C298       C1171   1.491       .  S
C299       C1238   1.467       .  S
Zn300       O304   1.915       .  S
Zn300       O305   2.015       .  S
Zn300       O309   2.010       .  S
Zn300       O316   2.004       .  S
Zn301       O304   1.959       .  S
Zn301       O306   2.052       .  S
Zn301       O308   2.101       .  S
Zn301       O312   2.004       .  S
Zn302       O304   1.937       .  S
Zn302       O307   2.051       .  S
Zn302       O310   1.987       .  S
Zn302       O313   2.086       .  S
Zn303       O304   1.901       .  S
Zn303       O311   2.020       .  S
Zn303       O314   1.985       .  S
Zn303       O315   1.985       .  S
O305        C317   1.274       .  A
O306        C318   1.283       .  A
O307        C319   1.281       .  A
O308        C317   1.283       .  A
O309        C319   1.276       .  A
O310        C318   1.274       .  A
O311        C320   1.274       .  A
O312        C321   1.271       .  A
O313        C320   1.280       .  A
O314        C321   1.272       .  A
O315        C322   1.271       .  A
O316        C322   1.270       .  A
C317       C1168   1.503   1_545  S
C318       C1108   1.484       .  S
C319       C1121   1.477       .  S
C320       C1288   1.497       .  S
C321       C1208   1.458       .  S
C322       C1131   1.453       .  S
Zn323       O327   1.948       .  S
Zn323       O328   2.015       .  S
Zn323       O332   2.110       .  S
Zn323       O339   2.067       .  S
Zn324       O327   1.892       .  S
Zn324       O329   1.962       .  S
Zn324       O331   1.984       .  S
Zn324       O335   2.021       .  S
Zn325       O327   1.919       .  S
Zn325       O330   1.995       .  S
Zn325       O333   1.983       .  S
Zn325       O336   1.999       .  S
Zn326       O327   1.922       .  S
Zn326       O334   2.046       .  S
Zn326       O337   2.091       .  S
Zn326       O338   1.991       .  S
O328        C340   1.272       .  A
O329        C341   1.270       .  A
O330        C342   1.274       .  A
O331        C340   1.271       .  A
O332        C342   1.285       .  A
O333        C341   1.267       .  A
O334        C343   1.280       .  A
O335        C344   1.273       .  A
O336        C343   1.275       .  A
O337        C344   1.281       .  A
O338        C345   1.276       .  A
O339        C345   1.286       .  A
C340       C1128   1.462       .  S
C341       C1301   1.445       .  S
C342       C1101   1.508       .  S
C343       C1088   1.482       .  S
C344       C1201   1.496       .  S
C345       C1078   1.489       .  S
Zn346       O350   1.945       .  S
Zn346       O351   1.999       .  S
Zn346       O355   2.070       .  S
Zn346       O362   2.027       .  S
Zn347       O350   1.919       .  S
Zn347       O352   1.996       .  S
Zn347       O354   1.978       .  S
Zn347       O358   1.965       .  S
Zn348       O350   1.918       .  S
Zn348       O353   2.026       .  S
Zn348       O356   1.974       .  S
Zn348       O359   1.961       .  S
Zn349       O350   1.958       .  S
Zn349       O357   2.085       .  S
Zn349       O360   2.138       .  S
Zn349       O361   2.042       .  S
O351        C363   1.271       .  A
O352        C364   1.271       .  A
O353        C365   1.273       .  A
O354        C363   1.271       .  A
O355        C365   1.279       .  A
O356        C364   1.271       .  A
O357        C366   1.285       .  A
O358        C367   1.267       .  A
O359        C366   1.269       .  A
O360        C367   1.287       .  A
O361        C368   1.280       .  A
O362        C368   1.280       .  A
C363       C1161   1.464       .  S
C364       C1351   1.469       .  S
C365       C1261   1.493       .  S
C366       C1061   1.488       .  S
C367       C1098   1.493       .  S
C368       C1068   1.490       .  S
Zn369       O373   1.951       .  S
Zn369       O374   2.018       .  S
Zn369       O378   2.032       .  S
Zn369       O385   2.082       .  S
Zn370       O373   1.918       .  S
Zn370       O375   1.962       .  S
Zn370       O377   1.963       .  S
Zn370       O381   1.990       .  S
Zn371       O373   1.960       .  S
Zn371       O376   2.040       .  S
Zn371       O379   2.142       .  S
Zn371       O382   2.090       .  S
Zn372       O373   1.912       .  S
Zn372       O380   1.953       .  S
Zn372       O383   1.967       .  S
Zn372       O384   2.015       .  S
O374        C386   1.273       .  A
O375        C387   1.266       .  A
O376        C388   1.281       .  A
O377        C386   1.270       .  A
O378        C388   1.281       .  A
O379        C387   1.288       .  A
O380        C389   1.268       .  A
O381        C390   1.270       .  A
O382        C389   1.285       .  A
O383        C390   1.269       .  A
O384        C391   1.272       .  A
O385        C391   1.281       .  A
C386       C1018   1.468       .  S
C387       C1051   1.504       .  S
C388       C1601   1.491       .  S
C389       C1501   1.488       .  S
C390       C1038   1.467       .  S
C391       C1028   1.499       .  S
Zn392       O396   1.956       .  S
Zn392       O397   2.132       .  S
Zn392       O401   2.100       .  S
Zn392       O408   2.045       .  S
Zn393       O396   1.918       .  S
Zn393       O398   1.998       .  S
Zn393       O400   1.976       .  S
Zn393       O404   1.998       .  S
Zn394       O396   1.903       .  S
Zn394       O399   1.951       .  S
Zn394       O402   1.975       .  S
Zn394       O405   2.008       .  S
Zn395       O396   1.938       .  S
Zn395       O403   2.079       .  S
Zn395       O406   1.987       .  S
Zn395       O407   2.020       .  S
O397        C409   1.289       .  A
O398        C410   1.273       .  A
O399        C411   1.268       .  A
O400        C409   1.268       .  A
O401        C411   1.286       .  A
O402        C410   1.270       .  A
O403        C412   1.280       .  A
O404        C413   1.274       .  A
O405        C412   1.271       .  A
O406        C413   1.271       .  A
O407        C414   1.279       .  A
O408        C414   1.281       .  A
C409       C1048   1.502   1_545  S
C410       C1001   1.468   1_455  S
C411       C1218   1.481       .  S
C412        C988   1.498       .  S
C413       C1008   1.466       .  S
C414       C1118   1.486       .  S
Zn415       O419   1.911       .  S
Zn415       O420   1.985       .  S
Zn415       O424   1.995       .  S
Zn415       O431   1.977       .  S
Zn416       O419   1.945       .  S
Zn416       O421   2.081       .  S
Zn416       O423   1.989       .  S
Zn416       O427   2.011       .  S
Zn417       O419   1.898       .  S
Zn417       O422   1.967       .  S
Zn417       O425   2.011       .  S
Zn417       O428   1.953       .  S
Zn418       O419   1.956       .  S
Zn418       O426   2.101       .  S
Zn418       O429   2.037       .  S
Zn418       O430   2.141       .  S
O420        C432   1.273       .  A
O421        C433   1.280       .  A
O422        C434   1.269       .  A
O423        C432   1.270       .  A
O424        C434   1.273       .  A
O425        C433   1.271       .  A
O426        C435   1.286       .  A
O427        C436   1.279       .  A
O428        C435   1.268       .  A
O429        C436   1.281       .  A
O430        C437   1.289       .  A
O431        C437   1.268       .  A
C432        C958   1.463       .  S
C433       C1031   1.501       .  S
C434        C968   1.464       .  S
C435       C1431   1.477       .  S
C436       C1391   1.482       .  S
C437        C981   1.506       .  S
Zn438       O442   1.942       .  S
Zn438       O443   2.005       .  S
Zn438       O447   2.032       .  S
Zn438       O454   2.087       .  S
Zn439       O442   1.918       .  S
Zn439       O444   1.964       .  S
Zn439       O446   1.974       .  S
Zn439       O450   1.995       .  S
Zn440       O442   1.959       .  S
Zn440       O445   2.050       .  S
Zn440       O448   2.149       .  S
Zn440       O451   2.105       .  S
Zn441       O442   1.901       .  S
Zn441       O449   1.940       .  S
Zn441       O452   1.978       .  S
Zn441       O453   2.015       .  S
O443        C455   1.273       .  A
O444        C456   1.266       .  A
O445        C457   1.282       .  A
O446        C455   1.271       .  A
O447        C457   1.280       .  A
O448        C456   1.291       .  A
O449        C458   1.267       .  A
O450        C459   1.271       .  A
O451        C458   1.287       .  A
O452        C459   1.269       .  A
O453        C460   1.273       .  A
O454        C460   1.282       .  A
C455        C941   1.467       .  S
C456        C978   1.506       .  S
C457       C1278   1.494       .  S
C458       C1058   1.489       .  S
C459        C948   1.472   1_655  S
C460        C991   1.502       .  S
Zn461       O465   1.949       .  S
Zn461       O466   2.055       .  S
Zn461       O470   2.088       .  S
Zn461       O477   1.994       .  S
Zn462       O465   1.928       .  S
Zn462       O467   2.000       .  S
Zn462       O469   1.988       .  S
Zn462       O473   2.009       .  S
Zn463       O465   1.906       .  S
Zn463       O468   2.024       .  S
Zn463       O471   1.973       .  S
Zn463       O474   1.968       .  S
Zn464       O465   1.971       .  S
Zn464       O472   2.005       .  S
Zn464       O475   2.107       .  S
Zn464       O476   2.074       .  S
O466        C478   1.281       .  A
O467        C479   1.268       .  A
O468        C480   1.275       .  A
O469        C478   1.274       .  A
O470        C480   1.280       .  A
O471        C479   1.269       .  A
O472        C481   1.270       .  A
O473        C482   1.274       .  A
O474        C481   1.269       .  A
O475        C482   1.283       .  A
O476        C483   1.286       .  A
O477        C483   1.274       .  A
C478       C1438   1.480       .  S
C479        C998   1.450       .  S
C480        C918   1.506       .  S
C481        C938   1.454       .  S
C482        C931   1.508       .  S
C483       C1378   1.487       .  S
Zn484       O488   1.930       .  S
Zn484       O489   2.003       .  S
Zn484       O493   2.018       .  S
Zn484       O500   1.996       .  S
Zn485       O488   1.944       .  S
Zn485       O490   1.984       .  S
Zn485       O492   2.049       .  S
Zn485       O496   2.080       .  S
Zn486       O488   1.969       .  S
Zn486       O491   2.094   1_565  S
Zn486       O494   2.055   1_565  S
Zn486       O497   2.008       .  S
Zn487       O488   1.907       .  S
Zn487       O495   1.980       .  S
Zn487       O498   2.015       .  S
Zn487       O499   1.966       .  S
O489        C501   1.276       .  A
O490        C502   1.273       .  A
O491        C503   1.281       .  A
O492        C501   1.280       .  A
O493        C503   1.276   1_565  A
O494        C502   1.283   1_545  A
O495        C504   1.270       .  A
O496        C505   1.279       .  A
O497        C504   1.271       .  A
O498        C505   1.274       .  A
O499        C506   1.268       .  A
O500        C506   1.267       .  A
C501       C1231   1.483       .  S
C502       C1111   1.485   1_565  S
C503        C928   1.506       .  S
C504       C1021   1.459       .  S
C505        C911   1.495       .  S
C506        C971   1.448       .  S
Zn507       O511   1.893       .  S
Zn507       O512   1.993       .  S
Zn507       O516   2.008       .  S
Zn507       O523   1.972       .  S
Zn508       O511   1.939       .  S
Zn508       O513   2.050       .  S
Zn508       O515   1.998       .  S
Zn508       O519   2.097       .  S
Zn509       O511   1.936       .  S
Zn509       O514   2.103       .  S
Zn509       O517   2.009       .  S
Zn509       O520   2.080       .  S
Zn510       O511   1.908       .  S
Zn510       O518   1.997       .  S
Zn510       O521   2.012       .  S
Zn510       O522   2.002       .  S
O512        C524   1.272       .  A
O513        C525   1.284       .  A
O514        C526   1.283       .  A
O515        C524   1.270       .  A
O516        C526   1.273       .  A
O517        C525   1.276       .  A
O518        C527   1.276       .  A
O519        C528   1.283       .  A
O520        C527   1.285       .  A
O521        C528   1.275       .  A
O522        C529   1.269       .  A
O523        C529   1.271       .  A
C524       C1011   1.461       .  S
C525       C1588   1.490       .  S
C526        C921   1.509       .  S
C527       C1511   1.482       .  S
C528        C898   1.499       .  S
C529        C951   1.449       .  S
Zn530       O534   1.953       .  S
Zn530       O535   2.085       .  S
Zn530       O539   2.023       .  S
Zn530       O546   1.982       .  S
Zn531       O534   1.889       .  S
Zn531       O536   1.947       .  S
Zn531       O538   2.000       .  S
Zn531       O542   1.968       .  S
Zn532       O534   1.941       .  S
Zn532       O537   2.041       .  S
Zn532       O540   2.082       .  S
Zn532       O543   2.120       .  S
Zn533       O534   1.920       .  S
Zn533       O541   1.986       .  S
Zn533       O544   2.012       .  S
Zn533       O545   1.983       .  S
O535        C547   1.279       .  A
O536        C548   1.268       .  A
O537        C549   1.280       .  A
O538        C547   1.271       .  A
O539        C549   1.279       .  A
O540        C548   1.285       .  A
O541        C550   1.270       .  A
O542        C551   1.268       .  A
O543        C550   1.287       .  A
O544        C551   1.273       .  A
O545        C552   1.273       .  A
O546        C552   1.270       .  A
C547        C908   1.496       .  S
C548       C1271   1.484       .  S
C549       C1071   1.491       .  S
C550        C901   1.487       .  S
C551        C961   1.473       .  S
C552       C1041   1.458       .  S
Zn553       O557   1.921       .  S
Zn553       O558   1.989       .  S
Zn553       O562   2.019       .  S
Zn553       O569   1.996       .  S
Zn554       O557   1.954       .  S
Zn554       O559   2.077       .  S
Zn554       O561   2.011       .  S
Zn554       O565   2.110       .  S
Zn555       O557   1.939       .  S
Zn555       O560   2.073       .  S
Zn555       O563   2.009       .  S
Zn555       O566   2.063       .  S
Zn556       O557   1.911       .  S
Zn556       O564   1.992       .  S
Zn556       O567   2.001       .  S
Zn556       O568   1.991       .  S
O558        C570   1.271       .  A
O559        C571   1.287       .  A
O560        C572   1.281       .  A
O561        C570   1.271       .  A
O562        C572   1.274       .  A
O563        C571   1.276       .  A
O564        C573   1.273       .  A
O565        C574   1.285       .  A
O566        C573   1.281       .  A
O567        C574   1.275       .  A
O568        C575   1.268       .  A
O569        C575   1.271       .  A
C570        C878   1.460       .  S
C571       C1401   1.493       .  S
C572        C858   1.501       .  S
C573       C1548   1.481       .  S
C574        C891   1.508       .  S
C575        C871   1.455       .  S
Zn576       O580   1.897       .  S
Zn576       O581   1.972       .  S
Zn576       O585   2.015       .  S
Zn576       O592   1.966       .  S
Zn577       O580   1.966       .  S
Zn577       O582   2.069       .  S
Zn577       O584   2.007       .  S
Zn577       O588   2.115       .  S
Zn578       O580   1.931       .  S
Zn578       O583   2.081       .  S
Zn578       O586   1.986       .  S
Zn578       O589   2.047       .  S
Zn579       O580   1.920       .  S
Zn579       O587   1.999       .  S
Zn579       O590   1.997       .  S
Zn579       O591   1.997       .  S
O581        C593   1.270       .  A
O582        C594   1.286       .  A
O583        C595   1.279       .  A
O584        C593   1.271       .  A
O585        C595   1.272       .  A
O586        C594   1.274       .  A
O587        C596   1.275       .  A
O588        C597   1.285       .  A
O589        C596   1.280       .  A
O590        C597   1.273       .  A
O591        C598   1.268       .  A
O592        C598   1.269       .  A
C593        C838   1.462       .  S
C594       C1141   1.483       .  S
C595        C828   1.493       .  S
C596       C1091   1.483       .  S
C597        C888   1.510       .  S
C598        C848   1.448       .  S
Zn599       O603   1.888       .  S
Zn599       O604   1.990       .  S
Zn599       O608   1.996       .  S
Zn599       O615   1.993       .  S
Zn600       O603   1.907       .  S
Zn600       O605   2.026       .  S
Zn600       O607   1.992       .  S
Zn600       O611   1.994       .  S
Zn601       O603   1.929       .  S
Zn601       O606   2.076       .  S
Zn601       O609   2.066       .  S
Zn601       O612   1.986       .  S
Zn602       O603   1.945       .  S
Zn602       O610   2.059       .  S
Zn602       O613   1.995       .  S
Zn602       O614   2.109       .  S
O604        C616   1.270       .  A
O605        C617   1.276       .  A
O606        C618   1.282       .  A
O607        C616   1.272       .  A
O608        C618   1.275       .  A
O609        C617   1.280       .  A
O610        C619   1.287       .  A
O611        C620   1.272       .  A
O612        C619   1.274       .  A
O613        C620   1.269       .  A
O614        C621   1.285       .  A
O615        C621   1.273       .  A
C616        C798   1.452       .  S
C617        C861   1.499       .  S
C618       C1471   1.486       .  S
C619       C1638   1.486       .  S
C620        C808   1.457   1_655  S
C621        C818   1.508   1_545  S
Zn622       O626   1.925       .  S
Zn622       O627   1.977       .  S
Zn622       O631   1.963       .  S
Zn622       O638   2.019       .  S
Zn623       O626   1.928       .  S
Zn623       O628   1.972       .  S
Zn623       O630   1.989       .  S
Zn623       O634   1.979       .  S
Zn624       O626   1.962       .  S
Zn624       O629   2.073       .  S
Zn624       O632   2.126       .  S
Zn624       O635   2.043       .  S
Zn625       O626   1.951       .  S
Zn625       O633   2.020       .  S
Zn625       O636   2.003       .  S
Zn625       O637   2.068       .  S
O627        C639   1.271       .  A
O628        C640   1.267       .  A
O629        C641   1.283       .  A
O630        C639   1.270       .  A
O631        C641   1.268       .  A
O632        C640   1.285       .  A
O633        C642   1.279       .  A
O634        C643   1.271       .  A
O635        C642   1.280       .  A
O636        C643   1.272       .  A
O637        C644   1.278       .  A
O638        C644   1.272       .  A
C639        C778   1.469       .  S
C640        C821   1.489       .  S
C641       C1321   1.486       .  S
C642       C1188   1.490       .  S
C643        C788   1.465       .  S
C644        C831   1.488       .  S
Zn645       O649   1.906       .  S
Zn645       O650   2.030       .  S
Zn645       O654   1.992       .  S
Zn645       O661   1.979       .  S
Zn646       O649   1.933       .  S
Zn646       O651   1.990       .  S
Zn646       O653   2.064       .  S
Zn646       O657   2.036       .  S
Zn647       O649   1.953       .  S
Zn647       O652   1.999       .  S
Zn647       O655   2.041   1_565  S
Zn647       O658   2.078   1_565  S
Zn648       O649   1.932       .  S
Zn648       O656   2.018       .  S
Zn648       O659   2.011       .  S
Zn648       O660   2.005       .  S
O650        C662   1.273       .  A
O651        C663   1.273       .  A
O652        C664   1.270       .  A
O653        C662   1.277       .  A
O654        C664   1.272       .  A
O655        C663   1.282   1_545  A
O656        C665   1.276   1_565  A
O657        C666   1.277       .  A
O658        C665   1.281       .  A
O659        C666   1.274       .  A
O660        C667   1.271       .  A
O661        C667   1.271       .  A
C662        C761   1.487       .  S
C663       C1458   1.473   1_565  S
C664        C791   1.459       .  S
C665        C768   1.496       .  S
C666       C1648   1.468       .  S
C667        C841   1.454       .  S
Zn668       O672   1.936       .  S
Zn668       O673   2.075       .  S
Zn668       O677   2.007       .  S
Zn668       O684   2.098       .  S
Zn669       O672   1.893       .  S
Zn669       O674   1.995       .  S
Zn669       O676   1.987       .  S
Zn669       O680   1.986       .  S
Zn670       O672   1.945       .  S
Zn670       O675   2.047       .  S
Zn670       O678   2.102       .  S
Zn670       O681   1.994       .  S
Zn671       O672   1.906       .  S
Zn671       O679   1.999       .  S
Zn671       O682   2.005       .  S
Zn671       O683   2.026       .  S
O673        C685   1.283       .  A
O674        C686   1.273       .  A
O675        C687   1.284       .  A
O676        C685   1.274       .  A
O677        C687   1.277       .  A
O678        C686   1.283       .  A
O679        C688   1.273       .  A
O680        C689   1.269       .  A
O681        C688   1.270       .  A
O682        C689   1.273       .  A
O683        C690   1.275       .  A
O684        C690   1.283       .  A
C685       C1151   1.482       .  S
C686        C771   1.497       .  S
C687       C1081   1.487       .  S
C688        C868   1.456       .  S
C689        C811   1.453       .  S
C690        C748   1.509       .  S
Zn691       O695   1.917       .  S
Zn691       O696   1.998       .  S
Zn691       O700   2.019       .  S
Zn691       O707   1.961       .  S
Zn692       O695   1.899       .  S
Zn692       O697   1.959       .  S
Zn692       O699   1.971       .  S
Zn692       O703   1.957       .  S
Zn693       O695   1.955       .  S
Zn693       O698   2.069       .  S
Zn693       O701   2.004       .  S
Zn693       O704   2.012       .  S
Zn694       O695   1.968       .  S
Zn694       O702   2.037       .  S
Zn694       O705   2.153       .  S
Zn694       O706   2.093       .  S
O696        C708   1.272       .  A
O697        C709   1.269       .  A
O698        C710   1.279       .  A
O699        C708   1.268       .  A
O700        C710   1.273       .  A
O701        C709   1.270       .  A
O702        C711   1.280       .  A
O703        C712   1.267       .  A
O704        C711   1.279       .  A
O705        C712   1.288       .  A
O706        C713   1.285       .  A
O707        C713   1.269       .  A
C708        C851   1.470       .  S
C709        C781   1.460       .  S
C710        C758   1.494       .  S
C711       C1411   1.478       .  S
C712        C741   1.507       .  S
C713       C1541   1.482       .  S
Zn714       O718   1.903       .  S
Zn714       O719   1.994       .  S
Zn714       O723   2.003       .  S
Zn714       O730   2.004       .  S
Zn715       O718   1.937       .  S
Zn715       O720   2.086       .  S
Zn715       O722   2.060       .  S
Zn715       O726   2.003       .  S
Zn716       O718   1.907       .  S
Zn716       O721   1.996       .  S
Zn716       O724   2.030       .  S
Zn716       O727   1.989       .  S
Zn717       O718   1.952       .  S
Zn717       O725   1.994       .  S
Zn717       O728   2.079       .  S
Zn717       O729   2.116       .  S
O719        C731   1.274       .  A
O720        C732   1.281       .  A
O721        C733   1.272       .  A
O722        C731   1.281       .  A
O723        C733   1.271       .  A
O724        C732   1.276       .  A
O725        C734   1.270       .  A
O726        C735   1.276       .  A
O727        C734   1.272       .  A
O728        C735   1.287       .  A
O729        C736   1.285       .  A
O730        C736   1.274       .  A
C731       C1328   1.475       .  S
C732        C751   1.508       .  S
C733        C881   1.456       .  S
C734        C801   1.454       .  S
C735       C1181   1.488       .  S
C736        C738   1.506       .  S
C737        C738   1.415       .  A
C737        C742   1.422       .  A
C737        H744   1.083       .  S
C738        C739   1.408       .  A
C739        C740   1.396       .  A
C739        F746   1.358       .  S
C740        C741   1.410       .  A
C740        H745   1.084       .  S
C741        C742   1.412       .  A
C742        F743   1.356       .  S
C747        C748   1.412       .  A
C747        C752   1.416   1_455  A
C747        H754   1.082       .  S
C748        C749   1.413       .  A
C749        C750   1.400   1_455  A
C749        F756   1.358       .  S
C750        C751   1.408       .  A
C750        H755   1.083       .  S
C751        C752   1.414       .  A
C752        F753   1.357       .  S
C757        C758   1.409       .  A
C757        C762   1.405       .  A
C757        H764   1.083       .  S
C758        C759   1.409       .  A
C759        C760   1.406       .  A
C759        F766   1.357       .  S
C760        C761   1.406       .  A
C760        H765   1.083       .  S
C761        C762   1.405       .  A
C762        F763   1.357       .  S
C767        C768   1.413       .  A
C767        C772   1.416       .  A
C767        H774   1.083       .  S
C768        C769   1.406       .  A
C769        C770   1.396       .  A
C769        F776   1.358       .  S
C770        C771   1.408       .  A
C770        H775   1.083       .  S
C771        C772   1.410       .  A
C772        F773   1.357       .  S
C777        C778   1.403       .  A
C777        C782   1.387       .  A
C777        H784   1.082       .  S
C778        C779   1.409       .  A
C779        C780   1.395       .  A
C779        F786   1.358       .  S
C780        C781   1.402       .  A
C780        H785   1.082       .  S
C781        C782   1.403       .  A
C782        F783   1.358       .  S
C787        C788   1.403       .  A
C787        C792   1.392       .  A
C787        H794   1.084       .  S
C788        C789   1.406       .  A
C789        C790   1.393       .  A
C789        F796   1.358       .  S
C790        C791   1.401       .  A
C790        H795   1.085       .  S
C791        C792   1.402       .  A
C792        F793   1.358       .  S
C797        C798   1.400       .  A
C797        C802   1.392       .  A
C797        H804   1.085       .  S
C798        C799   1.402       .  A
C799        C800   1.392       .  A
C799        F806   1.358       .  S
C800        C801   1.400       .  A
C800        H805   1.085       .  S
C801        C802   1.403       .  A
C802        F803   1.358       .  S
C807        C808   1.401       .  A
C807        C812   1.392       .  A
C807        H814   1.085   1_455  S
C808        C809   1.404       .  A
C809        C810   1.393       .  A
C809        F816   1.358       .  S
C810        C811   1.400       .  A
C810        H815   1.085       .  S
C811        C812   1.402       .  A
C812        F813   1.358       .  S
C817        C818   1.413       .  A
C817        C822   1.418       .  A
C817        H824   1.083       .  S
C818        C819   1.417   1_565  A
C819        C820   1.396   1_545  A
C819        F826   1.358       .  S
C820        C821   1.399       .  A
C820        H825   1.084   1_565  S
C821        C822   1.411       .  A
C822        F823   1.357       .  S
C827        C828   1.406       .  A
C827        C832   1.408       .  A
C827        H834   1.083       .  S
C828        C829   1.411       .  A
C829        C830   1.404       .  A
C829        F836   1.358       .  S
C830        C831   1.403       .  A
C830        H835   1.083       .  S
C831        C832   1.409       .  A
C832        F833   1.357       .  S
C837        C838   1.402       .  A
C837        C842   1.389       .  A
C837        H844   1.084       .  S
C838        C839   1.406       .  A
C839        C840   1.396       .  A
C839        F846   1.358       .  S
C840        C841   1.400       .  A
C840        H845   1.083       .  S
C841        C842   1.401       .  A
C842        F843   1.358       .  S
C847        C848   1.397       .  A
C847        C852   1.389       .  A
C847        H854   1.084       .  S
C848        C849   1.399       .  A
C849        C850   1.393       .  A
C849        F856   1.358       .  S
C850        C851   1.406       .  A
C850        H855   1.083       .  S
C851        C852   1.410       .  A
C852        F853   1.358       .  S
C857        C858   1.409       .  A
C857        C862   1.409   1_455  A
C857        H864   1.082       .  S
C858        C859   1.413       .  A
C859        C860   1.400   1_455  A
C859        F866   1.358       .  S
C860        C861   1.407       .  A
C860        H865   1.083       .  S
C861        C862   1.411       .  A
C862        F863   1.357       .  S
C867        C868   1.402       .  A
C867        C872   1.394       .  A
C867        H874   1.082       .  S
C868        C869   1.401       .  A
C869        C870   1.393       .  A
C869        F876   1.357       .  S
C870        C871   1.401       .  A
C870        H875   1.082       .  S
C871        C872   1.402       .  A
C872        F873   1.358       .  S
C877        C878   1.402   1_655  A
C877        C882   1.395       .  A
C877        H884   1.083       .  S
C878        C879   1.403       .  A
C879        C880   1.394   1_455  A
C879        F886   1.358       .  S
C880        C881   1.400       .  A
C880        H885   1.083       .  S
C881        C882   1.403       .  A
C882        F883   1.358       .  S
C887        C888   1.413       .  A
C887        C892   1.421       .  A
C887        H894   1.082       .  S
C888        C889   1.415       .  A
C889        C890   1.395       .  A
C889        F896   1.358       .  S
C890        C891   1.406       .  A
C890        H895   1.083       .  S
C891        C892   1.415       .  A
C892        F893   1.357       .  S
C897        C898   1.410       .  A
C897        C902   1.402       .  A
C897        H904   1.084       .  S
C898        C899   1.409       .  A
C899        C900   1.414       .  A
C899        F906   1.357       .  S
C900        C901   1.411       .  A
C900        H905   1.084       .  S
C901        C902   1.403       .  A
C902        F903   1.358       .  S
C907        C908   1.410       .  A
C907        C912   1.415       .  A
C907        H914   1.083       .  S
C908        C909   1.410       .  A
C909        C910   1.395       .  A
C909        F916   1.358       .  S
C910        C911   1.403       .  A
C910        H915   1.083       .  S
C911        C912   1.412       .  A
C912        F913   1.357       .  S
C917        C918   1.406       .  A
C917        C922   1.398   1_655  A
C917        H924   1.083       .  S
C918        C919   1.414       .  A
C919        C920   1.416   1_655  A
C919        F926   1.357       .  S
C920        C921   1.412       .  A
C920        H925   1.083       .  S
C921        C922   1.415       .  A
C922        F923   1.358       .  S
C927        C928   1.407       .  A
C927        C932   1.398       .  A
C927        H934   1.083   1_545  S
C928        C929   1.413       .  A
C929        C930   1.420       .  A
C929        F936   1.357       .  S
C930        C931   1.414       .  A
C930        H935   1.082       .  S
C931        C932   1.411       .  A
C932        F933   1.358       .  S
C937        C938   1.398       .  A
C937        C942   1.392       .  A
C937        H944   1.085       .  S
C938        C939   1.402       .  A
C939        C940   1.391       .  A
C939        F946   1.358       .  S
C940        C941   1.403       .  A
C940        H945   1.084       .  S
C941        C942   1.408       .  A
C942        F943   1.358       .  S
C947        C948   1.407       .  A
C947        C952   1.393       .  A
C947        H954   1.083       .  S
C948        C949   1.408   1_455  A
C949        C950   1.391   1_655  A
C949        F956   1.358       .  S
C950        C951   1.399       .  A
C950        H955   1.084       .  S
C951        C952   1.398       .  A
C952        F953   1.358       .  S
C957        C958   1.403       .  A
C957        C962   1.394       .  A
C957        H964   1.083       .  S
C958        C959   1.402       .  A
C959        C960   1.389       .  A
C959        F966   1.358       .  S
C960        C961   1.406       .  A
C960        H965   1.082       .  S
C961        C962   1.408       .  A
C962        F963   1.357       .  S
C967        C968   1.405       .  A
C967        C972   1.394       .  A
C967        H974   1.083       .  S
C968        C969   1.407       .  A
C969        C970   1.387       .  A
C969        F976   1.358       .  S
C970        C971   1.397       .  A
C970        H975   1.084       .  S
C971        C972   1.399       .  A
C972        F973   1.357       .  S
C977        C978   1.401       .  A
C977        C982   1.408       .  A
C977        H984   1.082       .  S
C978        C979   1.422       .  A
C979        C980   1.409       .  A
C979        F986   1.358       .  S
C980        C981   1.402       .  A
C980        H985   1.082       .  S
C981        C982   1.421       .  A
C982        F983   1.357       .  S
C987        C988   1.405       .  A
C987        C992   1.406       .  A
C987        H994   1.084       .  S
C988        C989   1.413   1_455  A
C989        C990   1.406       .  A
C989        F996   1.357       .  S
C990        C991   1.406       .  A
C990        H995   1.084       .  S
C991        C992   1.416   1_655  A
C992        F993   1.357       .  S
C997        C998   1.398       .  A
C997       C1002   1.394       .  A
C997       H1004   1.083       .  S
C998        C999   1.400       .  A
C999       C1000   1.390       .  A
C999       F1006   1.358       .  S
C1000      C1001   1.405       .  A
C1000      H1005   1.083       .  S
C1001      C1002   1.408       .  A
C1002      F1003   1.358   1_655  S
C1007      C1008   1.402       .  A
C1007      C1012   1.393       .  A
C1007      H1014   1.083       .  S
C1008      C1009   1.408       .  A
C1009      C1010   1.392       .  A
C1009      F1016   1.358       .  S
C1010      C1011   1.400       .  A
C1010      H1015   1.083       .  S
C1011      C1012   1.404       .  A
C1012      F1013   1.358       .  S
C1017      C1018   1.407       .  A
C1017      C1022   1.392       .  A
C1017      H1024   1.083       .  S
C1018      C1019   1.405       .  A
C1019      C1020   1.394       .  A
C1019      F1026   1.358       .  S
C1020      C1021   1.403       .  A
C1020      H1025   1.083       .  S
C1021      C1022   1.400       .  A
C1022      F1023   1.358       .  S
C1027      C1028   1.405       .  A
C1027      C1032   1.405       .  A
C1027      H1034   1.084       .  S
C1028      C1029   1.414       .  A
C1029      C1030   1.407       .  A
C1029      F1036   1.358       .  S
C1030      C1031   1.407       .  A
C1030      H1035   1.084       .  S
C1031      C1032   1.414       .  A
C1032      F1033   1.357       .  S
C1037      C1038   1.406       .  A
C1037      C1042   1.388       .  A
C1037      H1044   1.080       .  S
C1038      C1039   1.407       .  A
C1039      C1040   1.392       .  A
C1039      F1046   1.358       .  S
C1040      C1041   1.404       .  A
C1040      H1045   1.080       .  S
C1041      C1042   1.400       .  A
C1042      F1043   1.358       .  S
C1047      C1048   1.400       .  A
C1047      C1052   1.405       .  A
C1047      H1054   1.083       .  S
C1048      C1049   1.420       .  A
C1049      C1050   1.410       .  A
C1049      F1056   1.358   1_565  S
C1050      C1051   1.402       .  A
C1050      H1055   1.082       .  S
C1051      C1052   1.421       .  A
C1052      F1053   1.358       .  S
C1057      C1058   1.413   1_455  A
C1057      C1062   1.397   1_556  A
C1057      H1064   1.083       .  S
C1058      C1059   1.403   1_556  A
C1059      C1060   1.403       .  A
C1059      F1066   1.357   1_554  S
C1060      C1061   1.415   1_655  A
C1060      H1065   1.083       .  S
C1061      C1062   1.402       .  A
C1062      F1063   1.357       .  S
C1067      C1068   1.406       .  A
C1067      C1072   1.398   1_554  A
C1067      H1074   1.083       .  S
C1068      C1069   1.411       .  A
C1069      C1070   1.402   1_554  A
C1069      F1076   1.357       .  S
C1070      C1071   1.407       .  A
C1070      H1075   1.083       .  S
C1071      C1072   1.410       .  A
C1072      F1073   1.357       .  S
C1077      C1078   1.411       .  A
C1077      C1082   1.397       .  A
C1077      H1084   1.082       .  S
C1078      C1079   1.406       .  A
C1079      C1080   1.400       .  A
C1079      F1086   1.357       .  S
C1080      C1081   1.411       .  A
C1080      H1085   1.082       .  S
C1081      C1082   1.405       .  A
C1082      F1083   1.358       .  S
C1087      C1088   1.403       .  A
C1087      C1092   1.398       .  A
C1087      H1094   1.084       .  S
C1088      C1089   1.410       .  A
C1089      C1090   1.400       .  A
C1089      F1096   1.358       .  S
C1090      C1091   1.404       .  A
C1090      H1095   1.084       .  S
C1091      C1092   1.411       .  A
C1092      F1093   1.358       .  S
C1097      C1098   1.410       .  A
C1097      C1102   1.418       .  A
C1097      H1104   1.084       .  S
C1098      C1099   1.406       .  A
C1099      C1100   1.396       .  A
C1099      F1106   1.359       .  S
C1100      C1101   1.410       .  A
C1100      H1105   1.084       .  S
C1101      C1102   1.415       .  A
C1102      F1103   1.356       .  S
C1107      C1108   1.411       .  A
C1107      C1112   1.397   1_554  A
C1107      H1114   1.084   1_554  S
C1108      C1109   1.405   1_545  A
C1109      C1110   1.397       .  A
C1109      F1116   1.357       .  S
C1110      C1111   1.411   1_564  A
C1110      H1115   1.084       .  S
C1111      C1112   1.405       .  A
C1112      F1113   1.357       .  S
C1117      C1118   1.408       .  A
C1117      C1122   1.399   1_556  A
C1117      H1124   1.084       .  S
C1118      C1119   1.410       .  A
C1119      C1120   1.401   1_556  A
C1119      F1126   1.358       .  S
C1120      C1121   1.405       .  A
C1120      H1125   1.084       .  S
C1121      C1122   1.403       .  A
C1122      F1123   1.357       .  S
C1127      C1128   1.403       .  A
C1127      C1132   1.396       .  A
C1127      H1134   1.083       .  S
C1128      C1129   1.404       .  A
C1129      C1130   1.392       .  A
C1129      F1136   1.358       .  S
C1130      C1131   1.399       .  A
C1130      H1135   1.084       .  S
C1131      C1132   1.402       .  A
C1132      F1133   1.358       .  S
C1137      C1138   1.398       .  A
C1137      C1142   1.400       .  A
C1137      H1144   1.083       .  S
C1138      C1139   1.412       .  A
C1139      C1140   1.397       .  A
C1139      F1146   1.358       .  S
C1140      C1141   1.399       .  A
C1140      H1145   1.083       .  S
C1141      C1142   1.417       .  A
C1142      F1143   1.358       .  S
C1147      C1148   1.408   1_545  A
C1147      C1152   1.403       .  A
C1147      H1154   1.084       .  S
C1148      C1149   1.408   1_565  A
C1149      C1150   1.398       .  A
C1149      F1156   1.358   1_545  S
C1150      C1151   1.406       .  A
C1150      H1155   1.084       .  S
C1151      C1152   1.405       .  A
C1152      F1153   1.357       .  S
C1157      C1158   1.405       .  A
C1157      C1162   1.392       .  A
C1157      H1164   1.083       .  S
C1158      C1159   1.408       .  A
C1159      C1160   1.392       .  A
C1159      F1166   1.358       .  S
C1160      C1161   1.401       .  A
C1160      H1165   1.084       .  S
C1161      C1162   1.405       .  A
C1162      F1163   1.358       .  S
C1167      C1168   1.411   1_545  A
C1167      C1172   1.403   1_545  A
C1167      H1174   1.084       .  S
C1168      C1169   1.410       .  A
C1169      C1170   1.415       .  A
C1169      F1176   1.357       .  S
C1170      C1171   1.411       .  A
C1170      H1175   1.083       .  S
C1171      C1172   1.403       .  A
C1172      F1173   1.357   1_565  S
C1177      C1178   1.401       .  A
C1177      C1182   1.402       .  A
C1177      H1184   1.083       .  S
C1178      C1179   1.418       .  A
C1179      C1180   1.403       .  A
C1179      F1186   1.358       .  S
C1180      C1181   1.400       .  A
C1180      H1185   1.083       .  S
C1181      C1182   1.414       .  A
C1182      F1183   1.358       .  S
C1187      C1188   1.407   1_545  A
C1187      C1192   1.397       .  A
C1187      H1194   1.083   1_545  S
C1188      C1189   1.411   1_565  A
C1189      C1190   1.401       .  A
C1189      F1196   1.357   1_545  S
C1190      C1191   1.407       .  A
C1190      H1195   1.083       .  S
C1191      C1192   1.410       .  A
C1192      F1193   1.358       .  S
C1197      C1198   1.406       .  A
C1197      C1202   1.407       .  A
C1197      H1204   1.082       .  S
C1198      C1199   1.410       .  A
C1199      C1200   1.409       .  A
C1199      F1206   1.357       .  S
C1200      C1201   1.406       .  A
C1200      H1205   1.082       .  S
C1201      C1202   1.412       .  A
C1202      F1203   1.358       .  S
C1207      C1208   1.399       .  A
C1207      C1212   1.389       .  A
C1207      H1214   1.083       .  S
C1208      C1209   1.403       .  A
C1209      C1210   1.397       .  A
C1209      F1216   1.358       .  S
C1210      C1211   1.406       .  A
C1210      H1215   1.082       .  S
C1211      C1212   1.407       .  A
C1212      F1213   1.358       .  S
C1217      C1218   1.399   1_565  A
C1217      C1222   1.402   1_556  A
C1217      H1224   1.083       .  S
C1218      C1219   1.412   1_556  A
C1219      C1220   1.398   1_455  A
C1219      F1226   1.358       .  S
C1220      C1221   1.401   1_545  A
C1220      H1225   1.083       .  S
C1221      C1222   1.417   1_655  A
C1222      F1223   1.357   1_455  S
C1227      C1228   1.408       .  A
C1227      C1232   1.401       .  A
C1227      H1234   1.080       .  S
C1228      C1229   1.407       .  A
C1229      C1230   1.399   1_554  A
C1229      F1236   1.358   1_554  S
C1230      C1231   1.407       .  A
C1230      H1235   1.080       .  S
C1231      C1232   1.407   1_556  A
C1232      F1233   1.357       .  S
C1237      C1238   1.404       .  A
C1237      C1242   1.390   1_455  A
C1237      H1244   1.084       .  S
C1238      C1239   1.407       .  A
C1239      C1240   1.393       .  A
C1239      F1246   1.358       .  S
C1240      C1241   1.400   1_455  A
C1240      H1245   1.084       .  S
C1241      C1242   1.401       .  A
C1242      F1243   1.358       .  S
C1247      C1248   1.411       .  A
C1247      C1252   1.402       .  A
C1247      H1254   1.083   1_545  S
C1248      C1249   1.412       .  A
C1249      C1250   1.416       .  A
C1249      F1256   1.357       .  S
C1250      C1251   1.410       .  A
C1250      H1255   1.083       .  S
C1251      C1252   1.403       .  A
C1252      F1253   1.358       .  S
C1257      C1258   1.407       .  A
C1257      C1262   1.409       .  A
C1257      H1264   1.082       .  S
C1258      C1259   1.410   1_655  A
C1259      C1260   1.406       .  A
C1259      F1266   1.357       .  S
C1260      C1261   1.405       .  A
C1260      H1265   1.082       .  S
C1261      C1262   1.410   1_455  A
C1262      F1263   1.357       .  S
C1267      C1268   1.413       .  A
C1267      C1272   1.397       .  A
C1267      H1274   1.083       .  S
C1268      C1269   1.402       .  A
C1269      C1270   1.398   1_554  A
C1269      F1276   1.357       .  S
C1270      C1271   1.413       .  A
C1270      H1275   1.083       .  S
C1271      C1272   1.402   1_556  A
C1272      F1273   1.357       .  S
C1277      C1278   1.409       .  A
C1277      C1282   1.404   1_556  A
C1277      H1284   1.083       .  S
C1278      C1279   1.410       .  A
C1279      C1280   1.399   1_556  A
C1279      F1286   1.357       .  S
C1280      C1281   1.407       .  A
C1280      H1285   1.083       .  S
C1281      C1282   1.410       .  A
C1282      F1283   1.357       .  S
C1287      C1288   1.411       .  A
C1287      C1292   1.416       .  A
C1287      H1294   1.084       .  S
C1288      C1289   1.407       .  A
C1289      C1290   1.398       .  A
C1289      F1296   1.358       .  S
C1290      C1291   1.407       .  A
C1290      H1295   1.084       .  S
C1291      C1292   1.412       .  A
C1292      F1293   1.357       .  S
C1297      C1298   1.407       .  A
C1297      C1302   1.393       .  A
C1297      H1304   1.084       .  S
C1298      C1299   1.407       .  A
C1299      C1300   1.384       .  A
C1299      F1306   1.358       .  S
C1300      C1301   1.397       .  A
C1300      H1305   1.085       .  S
C1301      C1302   1.398       .  A
C1302      F1303   1.358       .  S
C1307      C1308   1.405       .  A
C1307      C1312   1.391       .  A
C1307      H1314   1.084       .  S
C1308      C1309   1.404       .  A
C1309      C1310   1.394       .  A
C1309      F1316   1.357       .  S
C1310      C1311   1.407       .  A
C1310      H1315   1.084       .  S
C1311      C1312   1.405       .  A
C1312      F1313   1.358       .  S
C1317      C1318   1.412       .  A
C1317      C1322   1.395       .  A
C1317      H1324   1.083       .  S
C1318      C1319   1.403       .  A
C1319      C1320   1.402       .  A
C1319      F1326   1.357       .  S
C1320      C1321   1.414       .  A
C1320      H1325   1.083       .  S
C1321      C1322   1.402       .  A
C1322      F1323   1.357       .  S
C1327      C1328   1.401       .  A
C1327      C1332   1.400       .  A
C1327      H1334   1.084       .  S
C1328      C1329   1.407       .  A
C1329      C1330   1.399       .  A
C1329      F1336   1.358       .  S
C1330      C1331   1.405       .  A
C1330      H1335   1.083       .  S
C1331      C1332   1.411       .  A
C1332      F1333   1.357       .  S
C1337      C1338   1.407   1_455  A
C1337      C1342   1.410       .  A
C1337      H1344   1.083       .  S
C1338      C1339   1.414       .  A
C1339      C1340   1.409   1_655  A
C1339      F1346   1.357       .  S
C1340      C1341   1.407       .  A
C1340      H1345   1.083       .  S
C1341      C1342   1.416       .  A
C1342      F1343   1.357       .  S
C1347      C1348   1.403       .  A
C1347      C1352   1.394   1_655  A
C1347      H1354   1.082       .  S
C1348      C1349   1.404       .  A
C1349      C1350   1.388       .  A
C1349      F1356   1.358       .  S
C1350      C1351   1.404   1_655  A
C1350      H1355   1.082       .  S
C1351      C1352   1.407       .  A
C1352      F1353   1.358       .  S
C1357      C1358   1.397       .  A
C1357      C1362   1.392       .  A
C1357      H1364   1.083       .  S
C1358      C1359   1.399       .  A
C1359      C1360   1.385       .  A
C1359      F1366   1.358       .  S
C1360      C1361   1.402       .  A
C1360      H1365   1.083       .  S
C1361      C1362   1.410       .  A
C1362      F1363   1.358       .  S
C1367      C1368   1.400       .  A
C1367      C1372   1.409       .  A
C1367      H1374   1.082       .  S
C1368      C1369   1.421       .  A
C1369      C1370   1.411       .  A
C1369      F1376   1.357       .  S
C1370      C1371   1.401       .  A
C1370      H1375   1.082       .  S
C1371      C1372   1.424       .  A
C1372      F1373   1.358       .  S
C1377      C1378   1.413       .  A
C1377      C1382   1.403       .  A
C1377      H1384   1.083       .  S
C1378      C1379   1.402       .  A
C1379      C1380   1.399       .  A
C1379      F1386   1.357       .  S
C1380      C1381   1.413       .  A
C1380      H1385   1.084       .  S
C1381      C1382   1.403       .  A
C1382      F1383   1.357       .  S
C1387      C1388   1.406       .  A
C1387      C1392   1.396       .  A
C1387      H1394   1.083       .  S
C1388      C1389   1.410       .  A
C1389      C1390   1.398       .  A
C1389      F1396   1.357       .  S
C1390      C1391   1.405       .  A
C1390      H1395   1.083       .  S
C1391      C1392   1.409       .  A
C1392      F1393   1.358       .  S
C1397      C1398   1.401       .  A
C1397      C1402   1.405   1_655  A
C1397      H1404   1.083       .  S
C1398      C1399   1.414   1_655  A
C1399      C1400   1.401       .  A
C1399      F1406   1.358       .  S
C1400      C1401   1.401       .  A
C1400      H1405   1.083       .  S
C1401      C1402   1.417       .  A
C1402      F1403   1.357       .  S
C1407      C1408   1.407       .  A
C1407      C1412   1.396       .  A
C1407      H1414   1.083       .  S
C1408      C1409   1.410       .  A
C1409      C1410   1.399       .  A
C1409      F1416   1.357       .  S
C1410      C1411   1.404       .  A
C1410      H1415   1.083       .  S
C1411      C1412   1.406       .  A
C1412      F1413   1.358       .  S
C1417      C1418   1.400       .  A
C1417      C1422   1.409       .  A
C1417      H1424   1.083       .  S
C1418      C1419   1.420       .  A
C1419      C1420   1.408       .  A
C1419      F1426   1.358       .  S
C1420      C1421   1.401       .  A
C1420      H1425   1.083       .  S
C1421      C1422   1.422       .  A
C1422      F1423   1.358       .  S
C1427      C1428   1.415       .  A
C1427      C1432   1.401       .  A
C1427      H1434   1.084       .  S
C1428      C1429   1.406       .  A
C1429      C1430   1.399       .  A
C1429      F1436   1.357       .  S
C1430      C1431   1.408       .  A
C1430      H1435   1.084       .  S
C1431      C1432   1.400       .  A
C1432      F1433   1.357       .  S
C1437      C1438   1.407       .  A
C1437      C1442   1.397   1_545  A
C1437      H1444   1.080       .  S
C1438      C1439   1.406       .  A
C1439      C1440   1.401       .  A
C1439      F1446   1.357       .  S
C1440      C1441   1.408   1_545  A
C1440      H1445   1.080       .  S
C1441      C1442   1.406       .  A
C1442      F1443   1.358       .  S
C1447      C1448   1.401       .  A
C1447      C1452   1.392       .  A
C1447      H1454   1.084       .  S
C1448      C1449   1.400       .  A
C1449      C1450   1.393       .  A
C1449      F1456   1.358       .  S
C1450      C1451   1.406       .  A
C1450      H1455   1.083       .  S
C1451      C1452   1.407       .  A
C1452      F1453   1.358       .  S
C1457      C1458   1.397       .  A
C1457      C1462   1.393       .  A
C1457      H1464   1.084       .  S
C1458      C1459   1.412   1_545  A
C1459      C1460   1.400       .  A
C1459      F1466   1.358       .  S
C1460      C1461   1.400   1_565  A
C1460      H1465   1.083       .  S
C1461      C1462   1.414       .  A
C1462      F1463   1.358       .  S
C1467      C1468   1.403       .  A
C1467      C1472   1.397       .  A
C1467      H1474   1.084       .  S
C1468      C1469   1.412       .  A
C1469      C1470   1.408       .  A
C1469      F1476   1.357       .  S
C1470      C1471   1.406       .  A
C1470      H1475   1.084       .  S
C1471      C1472   1.408       .  A
C1472      F1473   1.358       .  S
C1477      C1478   1.402       .  A
C1477      C1482   1.386       .  A
C1477      H1484   1.084       .  S
C1478      C1479   1.406       .  A
C1479      C1480   1.390       .  A
C1479      F1486   1.358       .  S
C1480      C1481   1.403       .  A
C1480      H1485   1.084       .  S
C1481      C1482   1.407       .  A
C1482      F1483   1.358       .  S
C1487      C1488   1.412       .  A
C1487      C1492   1.409       .  A
C1487      H1494   1.084       .  S
C1488      C1489   1.404       .  A
C1489      C1490   1.406       .  A
C1489      F1496   1.357       .  S
C1490      C1491   1.411       .  A
C1490      H1495   1.084       .  S
C1491      C1492   1.405       .  A
C1492      F1493   1.357       .  S
C1497      C1498   1.414       .  A
C1497      C1502   1.399       .  A
C1497      H1504   1.083       .  S
C1498      C1499   1.402       .  A
C1499      C1500   1.400       .  A
C1499      F1506   1.357       .  S
C1500      C1501   1.414       .  A
C1500      H1505   1.083       .  S
C1501      C1502   1.402       .  A
C1502      F1503   1.357       .  S
C1507      C1508   1.408       .  A
C1507      C1512   1.402       .  A
C1507      H1514   1.083       .  S
C1508      C1509   1.408       .  A
C1509      C1510   1.401       .  A
C1509      F1516   1.358       .  S
C1510      C1511   1.407       .  A
C1510      H1515   1.083       .  S
C1511      C1512   1.405       .  A
C1512      F1513   1.357       .  S
C1517      C1518   1.408       .  A
C1517      C1522   1.400       .  A
C1517      H1524   1.085       .  S
C1518      C1519   1.409       .  A
C1519      C1520   1.412   1_455  A
C1519      F1526   1.357       .  S
C1520      C1521   1.410       .  A
C1520      H1525   1.084       .  S
C1521      C1522   1.408   1_655  A
C1522      F1523   1.358   1_455  S
C1527      C1528   1.401       .  A
C1527      C1532   1.388       .  A
C1527      H1534   1.085       .  S
C1528      C1529   1.402       .  A
C1529      C1530   1.390   1_455  A
C1529      F1536   1.358       .  S
C1530      C1531   1.406       .  A
C1530      H1535   1.084       .  S
C1531      C1532   1.405   1_655  A
C1532      F1533   1.358       .  S
C1537      C1538   1.400       .  A
C1537      C1542   1.398       .  A
C1537      H1544   1.083       .  S
C1538      C1539   1.417       .  A
C1539      C1540   1.402       .  A
C1539      F1546   1.358       .  S
C1540      C1541   1.399       .  A
C1540      H1545   1.083       .  S
C1541      C1542   1.413       .  A
C1542      F1543   1.358       .  S
C1547      C1548   1.401       .  A
C1547      C1552   1.401       .  A
C1547      H1554   1.084       .  S
C1548      C1549   1.409       .  A
C1549      C1550   1.400       .  A
C1549      F1556   1.358       .  S
C1550      C1551   1.404       .  A
C1550      H1555   1.084       .  S
C1551      C1552   1.414       .  A
C1552      F1553   1.358       .  S
C1557      C1558   1.411       .  A
C1557      C1562   1.414       .  A
C1557      H1564   1.084       .  S
C1558      C1559   1.407       .  A
C1559      C1560   1.401       .  A
C1559      F1566   1.358       .  S
C1560      C1561   1.409       .  A
C1560      H1565   1.084       .  S
C1561      C1562   1.409       .  A
C1562      F1563   1.357       .  S
C1567      C1568   1.400       .  A
C1567      C1572   1.396       .  A
C1567      H1574   1.085       .  S
C1568      C1569   1.403       .  A
C1569      C1570   1.391       .  A
C1569      F1576   1.358       .  S
C1570      C1571   1.402       .  A
C1570      H1575   1.085       .  S
C1571      C1572   1.408       .  A
C1572      F1573   1.358       .  S
C1577      C1578   1.415       .  A
C1577      C1582   1.420       .  A
C1577      H1584   1.083       .  S
C1578      C1579   1.406       .  A
C1579      C1580   1.396       .  A
C1579      F1586   1.358       .  S
C1580      C1581   1.412       .  A
C1580      H1585   1.084       .  S
C1581      C1582   1.410       .  A
C1582      F1583   1.356       .  S
C1587      C1588   1.414       .  A
C1587      C1592   1.403       .  A
C1587      H1594   1.082       .  S
C1588      C1589   1.406       .  A
C1589      C1590   1.398       .  A
C1589      F1596   1.357       .  S
C1590      C1591   1.408       .  A
C1590      H1595   1.083       .  S
C1591      C1592   1.401       .  A
C1592      F1593   1.357       .  S
C1597      C1598   1.405       .  A
C1597      C1602   1.401       .  A
C1597      H1604   1.083       .  S
C1598      C1599   1.409       .  A
C1599      C1600   1.399   1_545  A
C1599      F1606   1.358       .  S
C1600      C1601   1.407       .  A
C1600      H1605   1.083       .  S
C1601      C1602   1.411   1_565  A
C1602      F1603   1.357       .  S
C1607      C1608   1.412       .  A
C1607      C1612   1.407       .  A
C1607      H1614   1.083       .  S
C1608      C1609   1.408       .  A
C1609      C1610   1.405       .  A
C1609      F1616   1.357       .  S
C1610      C1611   1.412       .  A
C1610      H1615   1.083       .  S
C1611      C1612   1.410       .  A
C1612      F1613   1.357       .  S
C1617      C1618   1.405       .  A
C1617      C1622   1.391       .  A
C1617      H1624   1.084       .  S
C1618      C1619   1.408       .  A
C1619      C1620   1.390       .  A
C1619      F1626   1.358       .  S
C1620      C1621   1.399       .  A
C1620      H1625   1.084       .  S
C1621      C1622   1.398       .  A
C1622      F1623   1.358       .  S
C1627      C1628   1.403       .  A
C1627      C1632   1.394       .  A
C1627      H1634   1.082       .  S
C1628      C1629   1.405       .  A
C1629      C1630   1.391       .  A
C1629      F1636   1.358       .  S
C1630      C1631   1.404       .  A
C1630      H1635   1.082       .  S
C1631      C1632   1.406       .  A
C1632      F1633   1.358       .  S
C1637      C1638   1.400   1_565  A
C1637      C1642   1.395   1_655  A
C1637      H1644   1.083       .  S
C1638      C1639   1.419   1_655  A
C1639      C1640   1.400       .  A
C1639      F1646   1.358       .  S
C1640      C1641   1.397       .  A
C1640      H1645   1.083       .  S
C1641      C1642   1.412   1_545  A
C1642      F1643   1.358       .  S
C1647      C1648   1.400       .  A
C1647      C1652   1.400       .  A
C1647      H1654   1.085       .  S
C1648      C1649   1.402       .  A
C1649      C1650   1.398       .  A
C1649      F1656   1.358       .  S
C1650      C1651   1.408       .  A
C1650      H1655   1.084       .  S
C1651      C1652   1.411       .  A
C1652      F1653   1.357       .  S
C1657      C1658   1.402       .  A
C1657      C1662   1.392       .  A
C1657      H1664   1.082       .  S
C1658      C1659   1.400       .  A
C1659      C1660   1.387       .  A
C1659      F1666   1.358       .  S
C1660      C1661   1.405       .  A
C1660      H1665   1.081       .  S
C1661      C1662   1.406       .  A
C1662      F1663   1.358       .  S
C1667      C1668   1.409   1_455  A
C1667      C1672   1.408       .  A
C1667      H1674   1.083       .  S
C1668      C1669   1.409       .  A
C1669      C1670   1.406       .  A
C1669      F1676   1.357       .  S
C1670      C1671   1.411   1_655  A
C1670      H1675   1.083       .  S
C1671      C1672   1.411       .  A
C1672      F1673   1.357       .  S
C1677      C1678   1.404       .  A
C1677      C1682   1.388       .  A
C1677      H1684   1.083       .  S
C1678      C1679   1.407       .  A
C1679      C1680   1.393       .  A
C1679      F1686   1.357   1_655  S
C1680      C1681   1.398       .  A
C1680      H1685   1.084       .  S
C1681      C1682   1.400       .  A
C1682      F1683   1.359       .  S
C1687      C1688   1.402       .  A
C1687      C1692   1.410       .  A
C1687      H1694   1.082       .  S
C1688      C1689   1.422       .  A
C1689      C1690   1.410       .  A
C1689      F1696   1.358       .  S
C1690      C1691   1.402       .  A
C1690      H1695   1.082       .  S
C1691      C1692   1.423       .  A
C1692      F1693   1.357       .  S
