geometry optimzed in LAMMPS
_audit_creation_date              2020-12-01 
_audit_creation_method            'lammps2cif' 
_symmetry_space_group_name_H-M    'P1' 
_symmetry_Int_Tables_number       1 
_symmetry_cell_setting            triclinic 
loop_ 
_symmetry_equiv_pos_as_xyz 
  x,y,z 
_cell_length_a                    37.61146189 
_cell_length_b                    37.3280890511107 
_cell_length_c                    75.77647136175871 
_cell_angle_alpha                 89.89773442158021 
_cell_angle_beta                  89.34743662401819 
_cell_angle_gamma                 90.26234338730988 
loop_ 
_atom_site_label 
_atom_site_type_symbol 
_atom_site_fract_x 
_atom_site_fract_y 
_atom_site_fract_z 
_atom_site_charge 
Zr1        Zr  0.13591369  0.00090773  0.54959441     2.17500
O2          O  0.13587731  0.06587346  0.54622849    -0.51300
O3          O  0.18965546  0.01097163  0.53188419    -0.74500
O4          O  0.15791880  0.03295876  0.57800810    -0.81300
O5          O  0.09942810  0.97631425  0.50645839    -0.83000
O6          O  0.15835785  0.99339729  0.60074065    -0.78600
O7          O  0.09050283  0.01812089  0.52694166    -0.90300
O8          O  0.22125823  0.95910848  0.53185751    -0.76200
O9          O  0.17265770  0.95929527  0.56463771    -0.85700
O10         O  0.14751147  0.95117634  0.52959794    -0.85400
O11         O  0.10121530  0.98176897  0.57468244    -0.72200
O12         O  0.08174661  0.97029967  0.54154400    -0.84300
Zr13       Zr  0.09466759  0.86461375  0.56294260     2.26400
Zr14       Zr  0.13760983  0.93810824  0.58908441     2.06300
Zr15       Zr  0.09335475  0.92016223  0.52193772     2.10000
Zr16       Zr  0.18525573  0.91153228  0.54476302     1.78800
O17         O  0.03871538  0.92867132  0.50554753    -0.93100
O18         O  0.23843893  0.91147447  0.56284996    -0.40900
O19         O  0.13084934  0.88053714  0.53768292    -0.77500
O20         O  0.15206672  0.88979288  0.56959412    -0.96200
O21         O  0.08115280  0.91316301  0.58220805    -0.89500
O22         O  0.05810623  0.90444204  0.54672034    -0.92400
C23         C  0.21661072  0.99190385  0.52739649     1.01400
C24         C  0.08283135  0.00396043  0.51178035     1.14300
C25         C  0.16396276  0.02475820  0.59465578     1.05100
O26         O  0.19392714  0.93550090  0.60450978    -0.94500
O27         O  0.14343333  0.88426163  0.60619111    -0.90300
O28         O  0.11823418  0.84020957  0.58988726    -0.83400
C29         C  0.13443478  0.85168385  0.60357769     1.11700
O30         O  0.02037480  0.01339672  0.57027851    -0.96500
Zr31       Zr  0.04604717  0.95420142  0.56587565     1.88900
O32         O  0.04037966  0.86097421  0.58060974    -0.73100
O33         O  0.09999063  0.94654962  0.61509458    -0.52400
O34         O  0.02024367  0.96273809  0.59517544    -0.97100
O35         O  0.99909750  0.97183941  0.54579490    -0.54300
O36         O  0.00801688  0.90289388  0.56768417    -0.73700
C37         C  0.01232392  0.88013472  0.57985200     0.98700
O38         O  0.09855328  0.79953118  0.56095154    -0.62500
O39         O  0.12633183  0.90066572  0.49586412    -0.57300
O40         O  0.06855631  0.82730479  0.54059253    -0.94000
O41         O  0.06650830  0.85984065  0.51525431    -0.92400
O42         O  0.20329646  0.89074665  0.51554792    -0.92700
O43         O  0.21471657  0.85348916  0.54502453    -0.91500
C44         C  0.06071085  0.83074359  0.52430058     1.17500
H45         H  0.15842669  0.95885960  0.51864416     0.33500
H46         H  0.16735359  0.87262503  0.57519858     0.44300
H47         H  0.03728147  0.89280974  0.54201474     0.37800
H48         H  0.09620760  0.00160847  0.58247011     0.34300
H49         H  0.25845936  0.91025633  0.55427164     0.26100
H50         H  0.08183275  0.96403708  0.61140847     0.32100
H51         H  0.99439756  0.96525879  0.59319790     0.38000
H52         H  0.19858451  0.91102824  0.50747925     0.32400
H53         H  0.12905962  0.87447636  0.49739845     0.31300
H54         H  0.04437290  0.92027480  0.49345651     0.33000
H55         H  0.97669259  0.96567504  0.55211153     0.31900
H56         H  0.21155671  0.84417155  0.55718506     0.35900
H57         H  0.12427803  0.79431575  0.56027053     0.28700
H58         H  0.11276903  0.07357812  0.55128168     0.32900
H59         H  0.03811505  0.02692181  0.57718520     0.35800
H60         H  0.10936215  0.90318370  0.48605207     0.28400
H61         H  0.09042925  0.78991511  0.57250591     0.41200
H62         H  0.20839913  0.91822829  0.59765173     0.31300
H63         H  0.23995565  0.93597841  0.56776455     0.38900
H64         H  0.00051617  0.95436870  0.53600361     0.30800
H65         H  0.08669139  0.92379447  0.61663370     0.30800
H66         H  0.13391116  0.07033730  0.53338772     0.31100
Zr67       Zr  0.29137523  0.12303528  0.69094860     2.17500
O68         O  0.22941233  0.12550810  0.70059736    -0.51300
O69         O  0.28610585  0.07185362  0.71179178    -0.74500
O70         O  0.24932714  0.10253472  0.66580585    -0.81300
O71         O  0.32779160  0.17647440  0.72963176    -0.83000
O72         O  0.28255305  0.09726128  0.64084073    -0.78600
O73         O  0.28020078  0.17501271  0.71181017    -0.90300
O74         O  0.33758435  0.03996579  0.71085682    -0.76200
O75         O  0.32700485  0.08068972  0.67497362    -0.85700
O76         O  0.34519147  0.11301824  0.70769036    -0.85400
O77         O  0.30503461  0.15033360  0.66268612    -0.72200
O78         O  0.32499485  0.17768842  0.69415502    -0.84300
Zr79       Zr  0.42278769  0.15690042  0.66694795     2.26400
Zr80       Zr  0.34359356  0.10856233  0.64757355     2.06300
Zr81       Zr  0.37889380  0.16737825  0.71072763     2.10000
Zr82       Zr  0.37967844  0.07080392  0.69157700     1.78800
O83         O  0.38142322  0.21896329  0.73032088    -0.93100
O84         O  0.36925351  0.01289311  0.67764626    -0.40900
O85         O  0.41356137  0.12563396  0.69440593    -0.77500
O86         O  0.39656585  0.09823584  0.66385421    -0.96200
O87         O  0.37018863  0.16594675  0.65064761    -0.89500
O88         O  0.38705158  0.19692634  0.68378095    -0.92400
C89         C  0.30615281  0.04584166  0.71687178     1.01400
C90         C  0.29703415  0.18781856  0.72541413     1.14300
C91         C  0.25262720  0.09575816  0.64881321     1.05100
O92         O  0.36225121  0.04651465  0.64418445    -0.94500
O93         O  0.37771725  0.13552511  0.62329473    -0.90300
O94         O  0.42845024  0.15761477  0.63509043    -0.83400
C95         C  0.40844290  0.15043956  0.62190545     1.11700
O96         O  0.27494838  0.22663605  0.66047121    -0.96500
Zr97       Zr  0.33501508  0.20652071  0.66679782     1.88900
O98         O  0.43456257  0.21928816  0.66054816    -0.73100
O99         O  0.33221693  0.09040040  0.61723336    -0.52400
O100        O  0.32982638  0.22766171  0.63653130    -0.97100
O101        O  0.31513154  0.25419503  0.68633531    -0.54300
O102        O  0.38203919  0.24891857  0.66033033    -0.73700
C103        C  0.41610408  0.24792400  0.65925243     0.98700
O104        O  0.47910610  0.12899802  0.65897427    -0.62500
O105        O  0.40339102  0.13147813  0.73449419    -0.57300
O106        O  0.46797834  0.18445741  0.68508669    -0.94000
O107        O  0.43857260  0.19941067  0.71034414    -0.92400
O108        O  0.41096237  0.06028374  0.71907012    -0.92700
O109        O  0.43342178  0.03555927  0.68724597    -0.91500
C110        C  0.46643357  0.20078348  0.69996033     1.17500
H111        H  0.34033709  0.10521764  0.71961294     0.33500
H112        H  0.41284410  0.08303111  0.65741323     0.44300
H113        H  0.39793324  0.21919254  0.68724117     0.37800
H114        H  0.28400827  0.15577420  0.65603913     0.34300
H115        H  0.37518681  0.99492581  0.68676484     0.26100
H116        H  0.31801500  0.06800108  0.61763676     0.32100
H117        H  0.32324609  0.20608265  0.62970005     0.38000
H118        H  0.40448659  0.03552127  0.72258709     0.32400
H119        H  0.42255338  0.14654463  0.73944972     0.31300
H120        H  0.38940434  0.20920043  0.74176704     0.33000
H121        H  0.33402325  0.25623833  0.69527773     0.31900
H122        H  0.45293823  0.05344278  0.68695005     0.35900
H123        H  0.48789242  0.11866390  0.67013861     0.28700
H124        H  0.21947844  0.10151921  0.69796607     0.32900
H125        H  0.25927547  0.21112370  0.66780494     0.35800
H126        H  0.38457506  0.13127973  0.74374422     0.28400
H127        H  0.49540535  0.14929049  0.65639806     0.41200
H128        H  0.37901851  0.04673441  0.63401385     0.31300
H129        H  0.34309700  0.01098897  0.67655747     0.38900
H130        H  0.31728546  0.27628385  0.67915848     0.30800
H131        H  0.31641295  0.10868519  0.61210815     0.30800
H132        H  0.21785222  0.14182731  0.69211532     0.31100
Zr133      Zr  0.39917829  0.48058095  0.55225205     2.17500
O134        O  0.39061879  0.54482930  0.54847668    -0.51300
O135        O  0.34646175  0.47691037  0.53298747    -0.74500
O136        O  0.43460301  0.50340142  0.52647486    -0.81300
O137        O  0.37622336  0.48315854  0.60311274    -0.83000
O138        O  0.44085093  0.45295800  0.51086542    -0.78600
O139        O  0.37032149  0.51583929  0.57798941    -0.90300
O140        O  0.32662505  0.41938184  0.53274208    -0.76200
O141        O  0.39673933  0.42581214  0.53533932    -0.85700
O142        O  0.36694897  0.43753199  0.56962480    -0.85400
O143        O  0.45974408  0.45785826  0.54720011    -0.72200
O144        O  0.43365436  0.47207845  0.57868122    -0.84300
Zr145      Zr  0.45643092  0.35581992  0.57363939     2.26400
Zr146      Zr  0.45614676  0.40295318  0.53003866     2.06300
Zr147      Zr  0.40207398  0.42740501  0.59546029     2.10000
Zr148      Zr  0.36342497  0.38416097  0.55237452     1.78800
O149        O  0.41091456  0.45497407  0.62418651    -0.93100
O150        O  0.35902112  0.34774751  0.52581263    -0.40900
O151        O  0.39595218  0.37333040  0.57907468    -0.77500
O152        O  0.42214552  0.36124066  0.54726071    -0.96200
O153        O  0.48924057  0.39731056  0.55618490    -0.89500
O154        O  0.46188598  0.40947958  0.59039286    -0.92400
C155        C  0.32516461  0.45210685  0.52758218     1.01400
C156        C  0.36539810  0.51084123  0.59501074     1.14300
C157        C  0.44932194  0.48570936  0.51364677     1.05100
O158        O  0.43456310  0.37487912  0.50321783    -0.94500
O159        O  0.48776850  0.34356222  0.52710455    -0.90300
O160        O  0.48104860  0.31343115  0.55305065    -0.83400
C161        C  0.49231977  0.31557251  0.53711050     1.11700
O162        O  0.50555758  0.51457707  0.57681527    -0.96500
Zr163      Zr  0.49304956  0.45100406  0.57287935     1.88900
O164        O  0.52026850  0.35317285  0.57757226    -0.73100
O165        O  0.51391484  0.41591448  0.51658780    -0.52400
O166        O  0.53913637  0.47823088  0.55432755    -0.97100
O167        O  0.51671958  0.45918021  0.60244811    -0.54300
O168        O  0.54177518  0.40930859  0.57365117    -0.73700
C169        C  0.54605509  0.37563781  0.57609571     0.98700
O170        O  0.44211454  0.29435748  0.58216461    -0.62500
O171        O  0.34586286  0.40193569  0.60573556    -0.57300
O172        O  0.45408835  0.34369668  0.60486530    -0.94000
O173        O  0.42346033  0.38816365  0.61833095    -0.92400
O174        O  0.30394539  0.38400587  0.56540226    -0.92700
O175        O  0.33894272  0.32523182  0.55935379    -0.91500
C176        C  0.44187501  0.35944884  0.61866651     1.17500
H177        H  0.34352573  0.44620898  0.57270453     0.33500
H178        H  0.42055426  0.33842636  0.54132693     0.44300
H179        H  0.47560091  0.40648588  0.60095616     0.37800
H180        H  0.47625866  0.47415068  0.54165627     0.34300
H181        H  0.33321313  0.34373932  0.52425491     0.26100
H182        H  0.51028266  0.41314778  0.50374934     0.32100
H183        H  0.54546756  0.45947503  0.54564805     0.38000
H184        H  0.30762776  0.38219121  0.57827330     0.32400
H185        H  0.35009581  0.37581764  0.60646180     0.31300
H186        H  0.43691455  0.45894576  0.62488303     0.33000
H187        H  0.50411608  0.48022367  0.60734398     0.31900
H188        H  0.35772302  0.31324715  0.56621728     0.35900
H189        H  0.46524420  0.28183905  0.58279136     0.28700
H190        H  0.38340374  0.54794285  0.53604097     0.32900
H191        H  0.48199580  0.52578537  0.57862391     0.35800
H192        H  0.34386531  0.40968472  0.61819285     0.28400
H193        H  0.43002707  0.28373860  0.57186645     0.41200
H194        H  0.45558800  0.37400569  0.49525423     0.31300
H195        H  0.36587722  0.36414867  0.51605897     0.38900
H196        H  0.54150780  0.46747613  0.60049698     0.30800
H197        H  0.51776153  0.44187133  0.51833097     0.30800
H198        H  0.41469737  0.55551116  0.54908685     0.31100
Zr199      Zr  0.25312073  0.62074326  0.69354332     2.17500
O200        O  0.31654189  0.63051588  0.69773032    -0.51300
O201        O  0.26082510  0.57015316  0.71331655    -0.74500
O202        O  0.26818490  0.66326053  0.71817722    -0.81300
O203        O  0.25784570  0.59450481  0.64274443    -0.83000
O204        O  0.21662691  0.66605298  0.73308600    -0.78600
O205        O  0.28983910  0.59236441  0.66803126    -0.90300
O206        O  0.20606482  0.54532509  0.71770253    -0.76200
O207        O  0.19948643  0.61787408  0.71149901    -0.85700
O208        O  0.21419715  0.57723632  0.68050365    -0.85400
O209        O  0.22487916  0.67964938  0.69489413    -0.72200
O210        O  0.24017892  0.64074365  0.66432170    -0.84300
Zr211      Zr  0.12347721  0.65584090  0.66993690     2.26400
Zr212      Zr  0.16982043  0.67543746  0.71212241     2.06300
Zr213      Zr  0.19760010  0.59948892  0.65198749     2.10000
Zr214      Zr  0.16233546  0.57392967  0.69878135     1.78800
O215        O  0.21379401  0.57398232  0.62343558    -0.93100
O216        O  0.13195187  0.56983610  0.72728805    -0.40900
O217        O  0.14567308  0.59547976  0.67001940    -0.77500
O218        O  0.13300589  0.63140067  0.69886477    -0.96200
O219        O  0.16241490  0.69773844  0.68335329    -0.89500
O220        O  0.17640963  0.65948990  0.65225816    -0.92400
C221        C  0.23957625  0.54756500  0.72067261     1.01400
C222        C  0.28611226  0.58706930  0.65098214     1.14300
C223        C  0.24834625  0.67725313  0.73051595     1.05100
O224        O  0.13813263  0.66003913  0.73930848    -0.94500
O225        O  0.11067788  0.70777816  0.71208354    -0.90300
O226        O  0.08333412  0.69378793  0.68644388    -0.83400
C227        C  0.08431623  0.71059825  0.70116204     1.11700
O228        O  0.27722226  0.71408437  0.67338427    -0.96500
Zr229      Zr  0.21614019  0.69928836  0.66600708     1.88900
O230        O  0.12701449  0.70960602  0.65131087    -0.73100
O231        O  0.18451141  0.73579906  0.72191535    -0.52400
O232        O  0.23576497  0.76121498  0.66245315    -0.97100
O233        O  0.23258307  0.69919481  0.63480205    -0.54300
O234        O  0.16808508  0.74022959  0.66599110    -0.73700
C235        C  0.14584773  0.73789910  0.65365059     0.98700
O236        O  0.06029502  0.63985120  0.67073857    -0.62500
O237        O  0.17728424  0.53750314  0.65405738    -0.57300
O238        O  0.10710033  0.62753425  0.64256432    -0.94000
O239        O  0.15835903  0.61766112  0.62820332    -0.92400
O240        O  0.16691712  0.51163867  0.68947688    -0.92700
O241        O  0.10570259  0.54266916  0.69597767    -0.91500
C242        C  0.12581585  0.62769742  0.62843234     1.17500
H243        H  0.22574855  0.55422375  0.67956443     0.33500
H244        H  0.11064126  0.62962989  0.70522201     0.44300
H245        H  0.17293940  0.67001266  0.64084789     0.37800
H246        H  0.23893296  0.69917023  0.69939973     0.34300
H247        H  0.13557744  0.54476627  0.73115534     0.26100
H248        H  0.19105808  0.74881511  0.71094357     0.32100
H249        H  0.22731804  0.76863058  0.65067342     0.38000
H250        H  0.16341025  0.49743552  0.70042093     0.32400
H251        H  0.15624422  0.53625090  0.64634376     0.31300
H252        H  0.19434187  0.55719811  0.62042943     0.33000
H253        H  0.24445851  0.67589450  0.63285074     0.31900
H254        H  0.08848097  0.56173896  0.69311235     0.35900
H255        H  0.05554773  0.63177463  0.68299985     0.28700
H256        H  0.32529651  0.64106801  0.68648831     0.32900
H257        H  0.29137413  0.69382328  0.66870845     0.35800
H258        H  0.19562122  0.52321980  0.64785143     0.28400
H259        H  0.05784501  0.61767084  0.66371353     0.41200
H260        H  0.14233801  0.68068366  0.74720749     0.31300
H261        H  0.14678653  0.58425539  0.73534215     0.38900
H262        H  0.25199120  0.71707929  0.63368273     0.30800
H263        H  0.16164890  0.74649877  0.72571221     0.30800
H264        H  0.32697792  0.60622789  0.69808054     0.31100
Zr265      Zr  0.64533596  0.00764391  0.55122691     2.17500
O266        O  0.63475112  0.94396213  0.54660695    -0.51300
O267        O  0.69644849  0.00259152  0.53073516    -0.74500
O268        O  0.60449654  0.99182429  0.52661767    -0.81300
O269        O  0.64957551  0.99550632  0.60047983    -0.83000
O270        O  0.60641191  0.04331689  0.51152539    -0.78600
O271        O  0.67553180  0.97269853  0.57643650    -0.90300
O272        O  0.72813150  0.05455085  0.53212633    -0.76200
O273        O  0.65439879  0.06205957  0.53436034    -0.85700
O274        O  0.68664372  0.04431281  0.56694537    -0.85400
O275        O  0.58895595  0.04004763  0.54889437    -0.72200
O276        O  0.61631723  0.01987170  0.57907539    -0.84300
Zr277      Zr  0.61058127  0.13996911  0.57452496     2.26400
Zr278      Zr  0.59887297  0.09373296  0.53138579     2.06300
Zr279      Zr  0.65685447  0.05812476  0.59425075     2.10000
Zr280      Zr  0.69567461  0.09759912  0.55009293     1.78800
O281        O  0.66016692  0.04068216  0.62521055    -0.93100
O282        O  0.70926635  0.12633471  0.52188770    -0.40900
O283        O  0.66781196  0.11214196  0.57784238    -0.77500
O284        O  0.64065135  0.12937607  0.54698622    -0.96200
O285        O  0.57027651  0.10336286  0.55890526    -0.89500
O286        O  0.60056412  0.08737863  0.59202840    -0.92400
C287        C  0.72283941  0.02286120  0.52611709     1.01400
C288        C  0.67098390  0.97324965  0.59361301     1.14300
C289        C  0.59262687  0.01243662  0.51424692     1.05100
O290        O  0.62395134  0.12191244  0.50499237    -0.94500
O291        O  0.57170483  0.15490539  0.52993033    -0.90300
O292        O  0.58718269  0.18529092  0.55465988    -0.83400
C293        C  0.57211454  0.18366876  0.53954231     1.11700
O294        O  0.53956800  0.98960112  0.58027740    -0.96500
Zr295      Zr  0.56107661  0.05081650  0.57625332     1.88900
O296        O  0.54827518  0.15182693  0.58135521    -0.73100
O297        O  0.54062109  0.08945764  0.51782302    -0.52400
O298        O  0.50805660  0.03208789  0.56050474    -0.97100
O299        O  0.54511972  0.04321053  0.60732408    -0.54300
O300        O  0.51930525  0.09862347  0.58005162    -0.73700
C301        C  0.51977172  0.13275591  0.58159234     0.98700
O302        O  0.63335632  0.20071652  0.57820997    -0.62500
O303        O  0.72073195  0.05757122  0.59917830    -0.57300
O304        O  0.62342490  0.15055579  0.60530489    -0.94000
O305        O  0.64957741  0.10138075  0.61709370    -0.92400
O306        O  0.75178967  0.09504561  0.56576033    -0.92700
O307        O  0.72407714  0.15616679  0.55235419    -0.91500
C308        C  0.63702453  0.13292568  0.61812571     1.17500
H309        H  0.70884453  0.03196425  0.56863708     0.33500
H310        H  0.64499333  0.15174829  0.54088905     0.44300
H311        H  0.58964064  0.09266576  0.60329858     0.37800
H312        H  0.56976485  0.02672777  0.54381034     0.34300
H313        H  0.73484572  0.12168216  0.51970675     0.26100
H314        H  0.54553701  0.08575069  0.50510132     0.32100
H315        H  0.48869581  0.03253972  0.56946841     0.38000
H316        H  0.74790311  0.10966123  0.57650010     0.32400
H317        H  0.72566296  0.08063697  0.60510652     0.31300
H318        H  0.63536094  0.03494937  0.62879978     0.33000
H319        H  0.56091220  0.02395660  0.61158552     0.31900
H320        H  0.70641033  0.17115776  0.55866537     0.35900
H321        H  0.61960102  0.21090055  0.58820780     0.28700
H322        H  0.62736163  0.93452545  0.55831060     0.32900
H323        H  0.56028899  0.97602747  0.58458896     0.35800
H324        H  0.72423079  0.03927322  0.60846408     0.28400
H325        H  0.65776908  0.19775656  0.58271329     0.41200
H326        H  0.63040967  0.14653109  0.50864770     0.31300
H327        H  0.69686808  0.11152089  0.51302842     0.38900
H328        H  0.52106587  0.03232763  0.60732209     0.30800
H329        H  0.53036986  0.06654949  0.52210040     0.30800
H330        H  0.65863032  0.93374014  0.54442294     0.31100
Zr331      Zr  0.78569010  0.88287807  0.69581235     2.17500
O332        O  0.72179791  0.87176347  0.69563206    -0.51300
O333        O  0.76773457  0.93240999  0.71570721    -0.74500
O334        O  0.76849221  0.83470018  0.71740997    -0.81300
O335        O  0.79023373  0.94397622  0.65471517    -0.83000
O336        O  0.81613832  0.83670999  0.73455683    -0.78600
O337        O  0.75463975  0.90190404  0.66660870    -0.90300
O338        O  0.81805838  0.96204721  0.72371369    -0.76200
O339        O  0.83382235  0.88584524  0.71682200    -0.85700
O340        O  0.82307459  0.93283201  0.68828863    -0.85400
O341        O  0.82027325  0.82683627  0.69630609    -0.72200
O342        O  0.81026512  0.86961112  0.66739203    -0.84300
Zr343      Zr  0.92458854  0.86999350  0.68019390     2.26400
Zr344      Zr  0.86955979  0.83173973  0.71686772     2.06300
Zr345      Zr  0.84794010  0.91931515  0.65982888     2.10000
Zr346      Zr  0.86922813  0.93649428  0.70955518     1.78800
O347        O  0.83058838  0.89941701  0.63055134    -0.93100
O348        O  0.88119112  0.93543314  0.74109523    -0.40900
O349        O  0.89406995  0.92581842  0.68094019    -0.77500
O350        O  0.90445715  0.88313759  0.70941740    -0.96200
O351        O  0.88983235  0.81924597  0.68813217    -0.89500
O352        O  0.87846257  0.86380308  0.65908216    -0.92400
C353        C  0.78446271  0.95709751  0.72423241     1.01400
C354        C  0.76144926  0.92599706  0.65426181     1.14300
C355        C  0.78681490  0.82202193  0.73035348     1.05100
O356        O  0.89506625  0.84221260  0.74581670    -0.94500
O357        O  0.92854258  0.79913916  0.71426105    -0.90300
O358        O  0.96374934  0.83837467  0.69975530    -0.83400
C359        C  0.95934154  0.80843915  0.70764965     1.11700
O360        O  0.78214552  0.79772652  0.65969286    -0.96500
Zr361      Zr  0.84242036  0.81444599  0.66790172     1.88900
O362        O  0.94023378  0.82172882  0.66030981    -0.73100
O363        O  0.85994610  0.76937644  0.72527185    -0.52400
O364        O  0.82791260  0.75390700  0.67782142    -0.97100
O365        O  0.83962995  0.79999435  0.63661118    -0.54300
O366        O  0.89642007  0.78087031  0.66459353    -0.73700
C367        C  0.92610845  0.79091434  0.65794493     0.98700
O368        O  0.98175852  0.90007879  0.68391810    -0.62500
O369        O  0.85783870  0.98286739  0.65419174    -0.57300
O370        O  0.94410278  0.89848972  0.65348358    -0.94000
O371        O  0.89846010  0.92638221  0.64001765    -0.92400
O372        O  0.87175977  0.99901174  0.70026569    -0.92700
O373        O  0.92456899  0.96753138  0.71615009    -0.91500
C374        C  0.93062012  0.91521141  0.64042294     1.17500
H375        H  0.80968023  0.95481980  0.68786135     0.33500
H376        H  0.92420926  0.88562708  0.71735823     0.44300
H377        H  0.88752069  0.85925700  0.64771269     0.37800
H378        H  0.80646744  0.80556008  0.69878579     0.34300
H379        H  0.87533339  0.95982570  0.74530748     0.26100
H380        H  0.85523421  0.76986971  0.73814122     0.32100
H381        H  0.83761350  0.73808418  0.66847581     0.38000
H382        H  0.84747252  0.00843780  0.70220248     0.32400
H383        H  0.84312721  0.99523734  0.66319641     0.31300
H384        H  0.81267650  0.88029935  0.63260594     0.33000
H385        H  0.85653799  0.78003904  0.63485503     0.31900
H386        H  0.94335406  0.95248223  0.71074791     0.35900
H387        H  0.97736366  0.92522145  0.68041981     0.28700
H388        H  0.71391438  0.87345876  0.70810802     0.32900
H389        H  0.77381191  0.81748080  0.65205771     0.35800
H390        H  0.88263316  0.98740967  0.65786982     0.28400
H391        H  0.98536485  0.90157173  0.69681827     0.41200
H392        H  0.90888255  0.82030826  0.74833494     0.31300
H393        H  0.86231990  0.91993633  0.74626047     0.38900
H394        H  0.85040050  0.82065597  0.63035610     0.30800
H395        H  0.83709172  0.76239238  0.71990776     0.30800
H396        H  0.71925471  0.84608250  0.69259503     0.31100
Zr397      Zr  0.90301559  0.53631304  0.55266861     2.17500
O398        O  0.89762909  0.47178154  0.54875923    -0.51300
O399        O  0.84970063  0.53132990  0.53402819    -0.74500
O400        O  0.87768349  0.50753054  0.58137298    -0.81300
O401        O  0.94567750  0.55137284  0.51017054    -0.83000
O402        O  0.87760216  0.54861350  0.60352530    -0.78600
O403        O  0.95070308  0.51224169  0.53207137    -0.90300
O404        O  0.82356920  0.58616842  0.53310773    -0.76200
O405        O  0.87045757  0.58153590  0.56816434    -0.85700
O406        O  0.89617516  0.58605938  0.53216335    -0.85400
O407        O  0.93874435  0.55358451  0.57753718    -0.72200
O408        O  0.95926506  0.56230278  0.54429914    -0.84300
Zr409      Zr  0.95600627  0.66770759  0.56274520     2.26400
Zr410      Zr  0.90719206  0.60111808  0.59212845     2.06300
Zr411      Zr  0.95313859  0.61018705  0.52320101     2.10000
Zr412      Zr  0.86197110  0.62933644  0.54772795     1.78800
O413        O  0.00944476  0.59762555  0.50840039    -0.93100
O414        O  0.80884105  0.63225114  0.56646700    -0.40900
O415        O  0.91861068  0.65384391  0.53837596    -0.77500
O416        O  0.89757582  0.64904900  0.57191484    -0.96200
O417        O  0.96514349  0.62095791  0.58358308    -0.89500
O418        O  0.98945415  0.62373263  0.54759556    -0.92400
C419        C  0.82525301  0.55292735  0.52880292     1.01400
C420        C  0.96075940  0.52378871  0.51656835     1.14300
C421        C  0.87015790  0.51736483  0.59766357     1.05100
O422        O  0.85272819  0.62502991  0.60502078    -0.94500
O423        O  0.92262926  0.65370480  0.60962948    -0.90300
O424        O  0.95140586  0.69292997  0.59137351    -0.83400
C425        C  0.93811706  0.68375667  0.60625822     1.11700
O426        O  0.01392484  0.51303077  0.56863856    -0.96500
Zr427      Zr  0.99610277  0.57556282  0.56811249     1.88900
O428        O  0.01750254  0.67577293  0.57061127    -0.73100
O429        O  0.93189148  0.57906402  0.61964124    -0.52400
O430        O  0.01252389  0.55932848  0.59805413    -0.97100
O431        O  0.04588808  0.55626920  0.54962221    -0.54300
O432        O  0.04038301  0.62007361  0.57424650    -0.73700
C433        C  0.04266473  0.65428935  0.57449587     0.98700
O434        O  0.93922394  0.73074000  0.56261743    -0.62500
O435        O  0.92369369  0.62662700  0.49590175    -0.57300
O436        O  0.98188525  0.70258442  0.53945659    -0.94000
O437        O  0.98161652  0.66890329  0.51461117    -0.92400
O438        O  0.84342452  0.65687973  0.52021890    -0.92700
O439        O  0.83854865  0.68990897  0.55034309    -0.91500
C440        C  0.98885641  0.69811745  0.52315012     1.17500
H441        H  0.88530395  0.57929480  0.52119971     0.33500
H442        H  0.88574124  0.66847402  0.57796347     0.44300
H443        H  0.01215856  0.63268512  0.54338554     0.37800
H444        H  0.94188863  0.53364377  0.58549954     0.34300
H445        H  0.78916690  0.62422411  0.55883908     0.26100
H446        H  0.95488615  0.59179002  0.62076487     0.32100
H447        H  0.01371608  0.58234970  0.60448552     0.38000
H448        H  0.85836396  0.64539337  0.51102745     0.32400
H449        H  0.94298793  0.62726641  0.48691118     0.31300
H450        H  0.00791569  0.60985910  0.49683642     0.33000
H451        H  0.06552360  0.57318941  0.55211593     0.31900
H452        H  0.85852438  0.70448866  0.55486460     0.35900
H453        H  0.92836641  0.73548355  0.55100390     0.28700
H454        H  0.87217849  0.46636334  0.55100522     0.32900
H455        H  0.99164625  0.49960644  0.57109812     0.35800
H456        H  0.90920093  0.60542497  0.49275093     0.28400
H457        H  0.96157577  0.74489372  0.56270407     0.41200
H458        H  0.85497019  0.62057088  0.61784223     0.31300
H459        H  0.81128652  0.61284818  0.57527801     0.38900
H460        H  0.03869299  0.56208143  0.53742779     0.30800
H461        H  0.91656881  0.58940694  0.62902725     0.30800
H462        H  0.91017406  0.46124492  0.55892841     0.31100
Zr463      Zr  0.76041293  0.38965871  0.69396202     2.17500
O464        O  0.82294256  0.39162034  0.70194072    -0.51300
O465        O  0.75584521  0.44044557  0.71416317    -0.74500
O466        O  0.79732852  0.42258823  0.66946647    -0.81300
O467        O  0.72386879  0.34193198  0.73374385    -0.83000
O468        O  0.76892159  0.42026636  0.64311542    -0.78600
O469        O  0.77398172  0.34368009  0.71743759    -0.90300
O470        O  0.69972089  0.46268893  0.71189443    -0.76200
O471        O  0.72205999  0.42302489  0.67541983    -0.85700
O472        O  0.70264615  0.39153668  0.70858702    -0.85400
O473        O  0.75694308  0.35655838  0.66695174    -0.72200
O474        O  0.73475678  0.33103323  0.69816029    -0.84300
Zr475      Zr  0.63999255  0.33360497  0.66730495     2.26400
Zr476      Zr  0.71565084  0.38850034  0.64899921     2.06300
Zr477      Zr  0.67688769  0.33309137  0.71264746     2.10000
Zr478      Zr  0.66633854  0.42730264  0.69049100     1.78800
O479        O  0.68651441  0.27712417  0.72843599    -0.93100
O480        O  0.67261131  0.48490663  0.67550641    -0.40900
O481        O  0.64052339  0.36833116  0.69401305    -0.77500
O482        O  0.65939844  0.39442039  0.66337205    -0.96200
O483        O  0.69609481  0.32856722  0.65295079    -0.89500
O484        O  0.67727571  0.30035370  0.68634175    -0.92400
C485        C  0.73075007  0.46180360  0.71884992     1.01400
C486        C  0.75564068  0.33140458  0.73086186     1.14300
C487        C  0.79491954  0.43004267  0.65249253     1.05100
O488        O  0.69488359  0.44588840  0.63785997    -0.94500
O489        O  0.67820035  0.37313359  0.62481179    -0.90300
O490        O  0.63256186  0.33966041  0.63564005    -0.83400
C491        C  0.64945031  0.35532949  0.62296420     1.11700
O492        O  0.79713554  0.28090994  0.67161410    -0.96500
Zr493      Zr  0.73443926  0.29726482  0.67217219     1.88900
O494        O  0.64216442  0.27036896  0.66005895    -0.73100
O495        O  0.74617867  0.36622211  0.62266203    -0.52400
O496        O  0.75591918  0.27833458  0.64324924    -0.97100
O497        O  0.75052855  0.25526247  0.69540489    -0.54300
O498        O  0.69695804  0.24811943  0.66496961    -0.73700
C499        C  0.66423537  0.24432766  0.66117486     0.98700
O500        O  0.57864052  0.34796282  0.66010196    -0.62500
O501        O  0.64180106  0.35854489  0.73668995    -0.57300
O502        O  0.59445062  0.30511493  0.68518984    -0.94000
O503        O  0.61935909  0.29773467  0.71213260    -0.92400
O504        O  0.62701939  0.43927581  0.71554735    -0.92700
O505        O  0.60910131  0.45135067  0.68176913    -0.91500
C506        C  0.59390268  0.29247396  0.70090276     1.17500
H507        H  0.70392089  0.40060391  0.72040820     0.33500
H508        H  0.64309253  0.40686285  0.65576873     0.44300
H509        H  0.66793655  0.27725355  0.68981180     0.37800
H510        H  0.77990843  0.35538176  0.66115653     0.34300
H511        H  0.67129484  0.50291359  0.68506912     0.26100
H512        H  0.75050013  0.38739660  0.61502909     0.32100
H513        H  0.75572671  0.25182743  0.64372431     0.38000
H514        H  0.64084510  0.43249702  0.72607271     0.32400
H515        H  0.61924154  0.36583855  0.73114498     0.31300
H516        H  0.67838803  0.28194459  0.74067220     0.33000
H517        H  0.76202213  0.23480660  0.68938967     0.31900
H518        H  0.59379618  0.42995350  0.68020229     0.35900
H519        H  0.57996520  0.37020840  0.65297840     0.28700
H520        H  0.82973658  0.41723317  0.70114028     0.32900
H521        H  0.81028715  0.30381412  0.67265945     0.35800
H522        H  0.63516731  0.33775428  0.74418398     0.28400
H523        H  0.57103310  0.32913472  0.65174973     0.41200
H524        H  0.71503590  0.45587475  0.63089873     0.31300
H525        H  0.69758725  0.48612222  0.67129123     0.38900
H526        H  0.72762025  0.24553654  0.69989388     0.30800
H527        H  0.77001884  0.35871517  0.62661703     0.30800
H528        H  0.83557535  0.38007130  0.69193596     0.31100
Zr529      Zr  0.78646280  0.63667789  0.19090718     2.17500
O530        O  0.72263459  0.62970908  0.19569137    -0.51300
O531        O  0.78538319  0.58161987  0.20879730    -0.74500
O532        O  0.75292937  0.61220265  0.16400385    -0.81300
O533        O  0.81204337  0.67705379  0.23388338    -0.83000
O534        O  0.78726796  0.61941375  0.13936512    -0.78600
O535        O  0.76725200  0.67885896  0.21459350    -0.90300
O536        O  0.84015346  0.55620265  0.20664185    -0.76200
O537        O  0.82713135  0.60731900  0.17164666    -0.85700
O538        O  0.83987675  0.62706613  0.20791411    -0.85400
O539        O  0.79654013  0.67848364  0.16706214    -0.72200
O540        O  0.81406918  0.69220878  0.19950513    -0.84300
Zr541      Zr  0.91297550  0.69402290  0.17355960     2.26400
Zr542      Zr  0.83928849  0.64961338  0.14849833     2.06300
Zr543      Zr  0.86671242  0.68233813  0.21675601     2.10000
Zr544      Zr  0.87877900  0.59571271  0.18867357     1.78800
O545        O  0.86135230  0.72913239  0.23895299    -0.93100
O546        O  0.87380617  0.54074903  0.17155504    -0.40900
O547        O  0.90587308  0.65165466  0.19726088    -0.77500
O548        O  0.89185350  0.63614075  0.16446238    -0.96200
O549        O  0.86109584  0.70669365  0.15711699    -0.89500
O550        O  0.87360506  0.72337407  0.19345604    -0.92400
C551        C  0.80815740  0.55739239  0.21292865     1.01400
C552        C  0.78162601  0.68884191  0.22927478     1.14300
C553        C  0.75912487  0.60821959  0.14704719     1.05100
O554        O  0.86377239  0.59830467  0.13281989    -0.94500
O555        O  0.87942700  0.67502321  0.12712185    -0.90300
O556        O  0.92562116  0.69778903  0.14234900    -0.83400
C557        C  0.91007832  0.68961290  0.12792665     1.11700
O558        O  0.75887818  0.75202483  0.17459251    -0.96500
Zr559      Zr  0.82113516  0.73482003  0.17689989     1.88900
O560        O  0.91939592  0.75872555  0.17198114    -0.73100
O561        O  0.80577709  0.67366654  0.12381327    -0.52400
O562        O  0.81100221  0.76740361  0.14950121    -0.97100
O563        O  0.79988964  0.77180729  0.20122691    -0.54300
O564        O  0.86447765  0.78262842  0.17545288    -0.73700
C565        C  0.89834719  0.78549865  0.17371390     0.98700
O566        O  0.97469230  0.67814723  0.16738642    -0.62500
O567        O  0.89078565  0.64090546  0.23839128    -0.57300
O568        O  0.95558236  0.71315134  0.19483399    -0.94000
O569        O  0.92572842  0.71359591  0.22108466    -0.92400
O570        O  0.91702737  0.58056593  0.21328887    -0.92700
O571        O  0.93494987  0.56997559  0.17875034    -0.91500
C572        C  0.95354958  0.72052428  0.21125969     1.17500
H573        H  0.83580875  0.61550148  0.21912061     0.33500
H574        H  0.90918277  0.62545241  0.15660261     0.44300
H575        H  0.88323985  0.74444214  0.19902212     0.37800
H576        H  0.77481217  0.68246380  0.16069033     0.34300
H577        H  0.87873470  0.52129115  0.18007989     0.26100
H578        H  0.81440150  0.69858804  0.12227144     0.32100
H579        H  0.83469687  0.76968362  0.14377157     0.38000
H580        H  0.90070997  0.57185197  0.22271291     0.32400
H581        H  0.90349255  0.65634686  0.24686665     0.31300
H582        H  0.87097761  0.71833217  0.24983395     0.33000
H583        H  0.82055131  0.77429740  0.20912005     0.31900
H584        H  0.95039528  0.59087314  0.17603401     0.35900
H585        H  0.97354042  0.65753974  0.15920614     0.28700
H586        H  0.71302612  0.65434760  0.19559541     0.32900
H587        H  0.75096494  0.74310573  0.16297612     0.35800
H588        H  0.86981342  0.63191038  0.24509784     0.28400
H589        H  0.98445513  0.69812745  0.16017763     0.41200
H590        H  0.85223496  0.59881206  0.12115029     0.31300
H591        H  0.84814552  0.53823173  0.16905627     0.38900
H592        H  0.79674253  0.79593877  0.19606888     0.30800
H593        H  0.81463434  0.66079615  0.11324661     0.30800
H594        H  0.72005697  0.62164245  0.20809523     0.31100
Zr595      Zr  0.64476604  0.50271807  0.04967985     2.17500
O596        O  0.64056320  0.56642447  0.04314511    -0.51300
O597        O  0.69426373  0.50801566  0.02866171    -0.74500
O598        O  0.67589335  0.53720175  0.07465341    -0.81300
O599        O  0.59835295  0.47077075  0.01035800    -0.83000
O600        O  0.66135071  0.51071551  0.10070055    -0.78600
O601        O  0.59537838  0.51749786  0.02864927    -0.90300
O602        O  0.72551556  0.45605253  0.03018080    -0.76200
O603        O  0.68418663  0.46461537  0.06565261    -0.85700
O604        O  0.65174674  0.44872969  0.03225919    -0.85400
O605        O  0.61599495  0.49093954  0.07753573    -0.72200
O606        O  0.58875690  0.47227215  0.04609886    -0.84300
Zr607      Zr  0.60852394  0.37157489  0.07130787     2.26400
Zr608      Zr  0.65431469  0.44942046  0.09295315     2.06300
Zr609      Zr  0.59544765  0.41821328  0.02891865     2.10000
Zr610      Zr  0.69289927  0.41277690  0.04768280     1.78800
O611        O  0.53896916  0.42620451  0.01405034    -0.93100
O612        O  0.75192829  0.41652775  0.06052922    -0.40900
O613        O  0.63737528  0.38180944  0.04365765    -0.77500
O614        O  0.66624065  0.39733767  0.07543379    -0.96200
O615        O  0.59763046  0.42348941  0.08876399    -0.89500
O616        O  0.56727258  0.40879214  0.05649570    -0.92400
C617        C  0.72011435  0.48753464  0.02406449     1.01400
C618        C  0.58446615  0.50062864  0.01469075     1.14300
C619        C  0.67666863  0.53539319  0.09193786     1.05100
O620        O  0.71439671  0.42945311  0.09937591    -0.94500
O621        O  0.62169779  0.41166630  0.11408313    -0.90300
O622        O  0.63226504  0.36080928  0.09990074    -0.83400
C623        C  0.62127439  0.37742140  0.11351855     1.11700
O624        O  0.53167993  0.52027226  0.06964622    -0.96500
Zr625      Zr  0.56004424  0.46235071  0.07318231     1.88900
O626        O  0.55554401  0.36391005  0.08876636    -0.73100
O627        O  0.66924331  0.46008289  0.12386685    -0.52400
O628        O  0.55217738  0.49196684  0.10155622    -0.97100
O629        O  0.50168985  0.46405293  0.05955231    -0.54300
O630        O  0.52863838  0.41829354  0.08952208    -0.73700
C631        C  0.53144224  0.38550001  0.09392615     0.98700
O632        O  0.63047732  0.31015885  0.07037499    -0.62500
O633        O  0.62361542  0.39059414  0.00329171    -0.57300
O634        O  0.57416199  0.32996639  0.05416177    -0.94000
O635        O  0.56215721  0.35930654  0.02859374    -0.92400
O636        O  0.70480125  0.38481829  0.01921083    -0.92700
O637        O  0.71937991  0.35375138  0.05132101    -0.91500
C638        C  0.55893403  0.33191691  0.03916831     1.17500
H639        H  0.66034553  0.45357713  0.02044721     0.33500
H640        H  0.68174487  0.38081007  0.08138897     0.44300
H641        H  0.54444269  0.39720238  0.05520920     0.37800
H642        H  0.61076072  0.51307941  0.08357122     0.34300
H643        H  0.75452210  0.44182100  0.06421218     0.26100
H644        H  0.69125957  0.47475467  0.12394412     0.32100
H645        H  0.52609704  0.49354961  0.10327089     0.38000
H646        H  0.73106333  0.38422371  0.01815824     0.32400
H647        H  0.62563425  0.36494254  0.00646168     0.31300
H648        H  0.54209571  0.41421872  0.00250144     0.33000
H649        H  0.48910608  0.44230595  0.06382754     0.31900
H650        H  0.70208482  0.33685911  0.04609699     0.35900
H651        H  0.64577814  0.30724754  0.08081094     0.28700
H652        H  0.66459863  0.57622503  0.04535500     0.32900
H653        H  0.55096433  0.53787629  0.07168887     0.35800
H654        H  0.60526295  0.39121788  0.99404132     0.28400
H655        H  0.64733691  0.30989696  0.06024786     0.41200
H656        H  0.71113344  0.40858465  0.10733929     0.31300
H657        H  0.75020468  0.40292260  0.07173189     0.38900
H658        H  0.50644060  0.45937480  0.04689029     0.30800
H659        H  0.65043418  0.47593815  0.12865804     0.30800
H660        H  0.62547968  0.57620116  0.05276978     0.31100
Zr661      Zr  0.89287391  0.99951170  0.05617633     2.17500
O662        O  0.89663541  0.06388902  0.05107484    -0.51300
O663        O  0.84307277  0.99866842  0.03496072    -0.74500
O664        O  0.93433523  0.01282536  0.03068528    -0.81300
O665        O  0.88494309  0.01758064  0.10539012    -0.83000
O666        O  0.93641436  0.95928095  0.01738281    -0.78600
O667        O  0.86051690  0.03657708  0.08024444    -0.90300
O668        O  0.81622183  0.94405233  0.03682974    -0.76200
O669        O  0.88679417  0.94259053  0.04150328    -0.85700
O670        O  0.85337080  0.96327861  0.07379270    -0.85400
O671        O  0.95110416  0.97016445  0.05485841    -0.72200
O672        O  0.92127638  0.99211864  0.08437295    -0.84300
Zr673      Zr  0.93210824  0.87281701  0.08432417     2.26400
Zr674      Zr  0.94387603  0.91336475  0.03963003     2.06300
Zr675      Zr  0.88255917  0.95398702  0.10151863     2.10000
Zr676      Zr  0.84653273  0.90778085  0.05866625     1.78800
O677        O  0.87605549  0.97791601  0.13132757    -0.93100
O678        O  0.83810331  0.86818912  0.03352521    -0.40900
O679        O  0.87380194  0.89816906  0.08684272    -0.77500
O680        O  0.90287936  0.87795813  0.05648189    -0.96200
O681        O  0.97148440  0.90894118  0.06730229    -0.89500
O682        O  0.94034608  0.92802477  0.09959017    -0.92400
C683        C  0.81930440  0.97560938  0.03019651     1.01400
C684        C  0.86393214  0.03838862  0.09742674     1.14300
C685        C  0.94771126  0.99141432  0.01886944     1.05100
O686        O  0.92181195  0.88118986  0.01404297    -0.94500
O687        O  0.97278186  0.85295773  0.04030320    -0.90300
O688        O  0.95723014  0.82548034  0.06607050    -0.83400
C689        C  0.97294768  0.82561383  0.05093305     1.11700
O690        O  0.99868440  0.02602317  0.08499754    -0.96500
Zr691      Zr  0.97835642  0.96420909  0.08251437     1.88900
O692        O  0.99491678  0.86520003  0.08923147    -0.73100
O693        O  0.00360883  0.91855965  0.02708057    -0.52400
O694        O  0.03207293  0.98629553  0.06784252    -0.97100
O695        O  0.99039684  0.97626414  0.11355909    -0.54300
O696        O  0.02266794  0.91881213  0.08695589    -0.73700
C697        C  0.02299715  0.88474983  0.08895923     0.98700
O698        O  0.90872735  0.81507003  0.09423486    -0.62500
O699        O  0.81901643  0.94387361  0.10621455    -0.57300
O700        O  0.92551847  0.86692582  0.11605133    -0.94000
O701        O  0.89666277  0.91617051  0.12630505    -0.92400
O702        O  0.78636702  0.91743256  0.06984028    -0.92700
O703        O  0.81800587  0.85206467  0.06803114    -0.91500
C704        C  0.91271440  0.88640372  0.12855940     1.17500
H705        H  0.83063439  0.97485569  0.07527270     0.33500
H706        H  0.89981271  0.85464777  0.05117391     0.44300
H707        H  0.95241170  0.92515527  0.11063562     0.37800
H708        H  0.96985862  0.98360559  0.04921605     0.34300
H709        H  0.81249300  0.87000898  0.03079777     0.26100
H710        H  0.00031496  0.91765173  0.01415066     0.32100
H711        H  0.03180479  0.97554736  0.05592523     0.38000
H712        H  0.77073087  0.90768747  0.06056061     0.32400
H713        H  0.81514735  0.91830149  0.10335349     0.31300
H714        H  0.85175250  0.98785726  0.13219415     0.33000
H715        H  0.97669550  0.99814884  0.11639110     0.31900
H716        H  0.82099683  0.85121623  0.08099237     0.35900
H717        H  0.89857711  0.80387333  0.08357111     0.28700
H718        H  0.88948566  0.06725019  0.03864861     0.32900
H719        H  0.97731988  0.04064549  0.08275217     0.35800
H720        H  0.81512265  0.94506988  0.11913006     0.28400
H721        H  0.92994437  0.80053427  0.09693878     0.41200
H722        H  0.93506355  0.89154197  0.00387153     0.31300
H723        H  0.85027904  0.88053121  0.02356931     0.38900
H724        H  0.01562081  0.98390240  0.11380911     0.30800
H725        H  0.01117008  0.94345429  0.02950510     0.30800
H726        H  0.92236769  0.06960145  0.05117687     0.31100
Zr727      Zr  0.74909070  0.14208027  0.19700305     2.17500
O728        O  0.81389116  0.14300357  0.19673957    -0.51300
O729        O  0.75471596  0.08789531  0.21495723    -0.74500
O730        O  0.77028077  0.17559597  0.22320027    -0.81300
O731        O  0.74535337  0.11236559  0.14687954    -0.83000
O732        O  0.72009604  0.17565436  0.23908793    -0.78600
O733        O  0.78302575  0.11584402  0.17003237    -0.90300
O734        O  0.70033388  0.06121901  0.21647741    -0.76200
O735        O  0.69678985  0.13606853  0.21581163    -0.85700
O736        O  0.70741525  0.10579613  0.18166137    -0.85400
O737        O  0.72228249  0.20079380  0.20343049    -0.72200
O738        O  0.73501946  0.17607479  0.17109460    -0.84300
Zr739      Zr  0.61858545  0.18815944  0.18027936     2.26400
Zr740      Zr  0.66908347  0.19376306  0.22188552     2.06300
Zr741      Zr  0.69157630  0.14015610  0.15613964     2.10000
Zr742      Zr  0.65726398  0.09781566  0.20079582     1.78800
O743        O  0.71926682  0.15532809  0.12790280    -0.93100
O744        O  0.63250725  0.08700925  0.23023793    -0.40900
O745        O  0.64062960  0.12918749  0.17436851    -0.77500
O746        O  0.62978154  0.15485919  0.20657466    -0.96200
O747        O  0.65770265  0.22655651  0.19583198    -0.89500
O748        O  0.66979351  0.19832117  0.16229646    -0.92400
C749        C  0.73350690  0.06294514  0.22027286     1.01400
C750        C  0.77564516  0.10684354  0.15369160     1.14300
C751        C  0.75145214  0.18784279  0.23622053     1.05100
O752        O  0.64471222  0.17603418  0.25049224    -0.94500
O753        O  0.60738350  0.22049625  0.22640278    -0.90300
O754        O  0.57751672  0.21536036  0.20063930    -0.83400
C755        C  0.57914464  0.22499332  0.21677553     1.11700
O756        O  0.77042735  0.25798795  0.17914322    -0.96500
Zr757      Zr  0.71029744  0.23370283  0.17810528     1.88900
O758        O  0.61414784  0.24782505  0.16818197    -0.73100
O759        O  0.68409042  0.25250495  0.23366004    -0.52400
O760        O  0.72047756  0.28474390  0.19750345    -0.97100
O761        O  0.73247987  0.25033352  0.14882158    -0.54300
O762        O  0.66773105  0.27644313  0.16868652    -0.73700
C763        C  0.63479301  0.27457402  0.16514439     0.98700
O764        O  0.55660284  0.16862129  0.17932610    -0.62500
O765        O  0.66616665  0.08483847  0.14484224    -0.57300
O766        O  0.59967804  0.17808675  0.15060570    -0.94000
O767        O  0.64832090  0.16098128  0.13517403    -0.92400
O768        O  0.65547602  0.04114896  0.18492876    -0.92700
O769        O  0.59895730  0.06994436  0.19780559    -0.91500
C770        C  0.61641011  0.17268209  0.13611731     1.17500
H771        H  0.71762425  0.08298822  0.17843484     0.33500
H772        H  0.60793688  0.15147642  0.21321101     0.44300
H773        H  0.66441614  0.21162736  0.15179082     0.37800
H774        H  0.73806248  0.21797314  0.20866281     0.34300
H775        H  0.60737905  0.09470489  0.22978349     0.26100
H776        H  0.67218270  0.25319277  0.24537264     0.32100
H777        H  0.70870122  0.30534714  0.19180711     0.38000
H778        H  0.66392222  0.02299443  0.19342296     0.32400
H779        H  0.67932887  0.08045541  0.13367107     0.31300
H780        H  0.72430198  0.18132234  0.12867895     0.33000
H781        H  0.73375845  0.27682785  0.14899467     0.31900
H782        H  0.58297299  0.08996916  0.19475606     0.35900
H783        H  0.54469251  0.18513251  0.17106248     0.28700
H784        H  0.82103462  0.13815173  0.20904206     0.32900
H785        H  0.78506333  0.24114255  0.17211352     0.35800
H786        H  0.67456443  0.06599719  0.15296385     0.28400
H787        H  0.55695402  0.14521800  0.17319290     0.41200
H788        H  0.62789148  0.15635597  0.24780727     0.31300
H789        H  0.63130195  0.06060634  0.23137650     0.38900
H790        H  0.71292344  0.24490270  0.14062786     0.30800
H791        H  0.67043971  0.26954959  0.22637554     0.30800
H792        H  0.82058373  0.16827669  0.19452918     0.31100
Zr793      Zr  0.25117671  0.89390961  0.19904892     2.17500
O794        O  0.31327950  0.89715414  0.20775338    -0.51300
O795        O  0.24857832  0.94670449  0.21847283    -0.74500
O796        O  0.28833379  0.92053101  0.17262236    -0.81300
O797        O  0.21895097  0.84754136  0.24000935    -0.83000
O798        O  0.25458994  0.91973595  0.14791873    -0.78600
O799        O  0.26627589  0.84706812  0.22192034    -0.90300
O800        O  0.19201236  0.96827527  0.21792635    -0.76200
O801        O  0.21067004  0.92619114  0.18097827    -0.85700
O802        O  0.19509253  0.89711585  0.21527945    -0.85400
O803        O  0.24441053  0.85906502  0.17270401    -0.72200
O804        O  0.22497156  0.83594631  0.20446970    -0.84300
Zr805      Zr  0.12761538  0.83546758  0.17652800     2.26400
Zr806      Zr  0.20144936  0.88953863  0.15539731     2.06300
Zr807      Zr  0.16910309  0.83914656  0.22066106     2.10000
Zr808      Zr  0.15678361  0.93156339  0.19761726     1.78800
O809        O  0.17800357  0.78425726  0.23741033    -0.93100
O810        O  0.16370324  0.98957002  0.18311947    -0.40900
O811        O  0.13093947  0.87284635  0.20233279    -0.77500
O812        O  0.14679049  0.89644506  0.17132212    -0.96200
O813        O  0.18183279  0.82986112  0.16042885    -0.89500
O814        O  0.16698910  0.80389504  0.19506660    -0.92400
C815        C  0.22400430  0.96822819  0.22380406     1.01400
C816        C  0.24951741  0.83529045  0.23594795     1.14300
C817        C  0.28322631  0.92766449  0.15575622     1.05100
O818        O  0.18370946  0.94405894  0.14021891    -0.94500
O819        O  0.16241401  0.87198412  0.13217426    -0.90300
O820        O  0.11715628  0.84203695  0.14535438    -0.83400
C821        C  0.13281653  0.85527028  0.13173071     1.11700
O822        O  0.28566970  0.78824666  0.17635482    -0.96500
Zr823      Zr  0.22227526  0.80034764  0.17918945     1.88900
O824        O  0.12737260  0.77059307  0.17071483    -0.73100
O825        O  0.23722646  0.86351734  0.13169337    -0.52400
O826        O  0.24073479  0.77463201  0.15102549    -0.97100
O827        O  0.23956692  0.75828705  0.20206574    -0.54300
O828        O  0.18408611  0.75163349  0.17320721    -0.73700
C829        C  0.15117386  0.74582935  0.17076249     0.98700
O830        O  0.06512383  0.84578135  0.16994028    -0.62500
O831        O  0.13735719  0.86880567  0.24467845    -0.57300
O832        O  0.08316665  0.81150876  0.19638665    -0.94000
O833        O  0.11107398  0.80542947  0.22263381    -0.92400
O834        O  0.11761484  0.94100555  0.22303480    -0.92700
O835        O  0.10010400  0.95786252  0.18953717    -0.91500
C836        C  0.08411719  0.80044770  0.21234642     1.17500
H837        H  0.19761971  0.90683307  0.22692865     0.33500
H838        H  0.12961554  0.90842053  0.16401242     0.44300
H839        H  0.15814710  0.78095597  0.19908391     0.37800
H840        H  0.26660207  0.85711958  0.16625752     0.34300
H841        H  0.18841471  0.99720775  0.18557828     0.26100
H842        H  0.22849118  0.83857244  0.13060045     0.32100
H843        H  0.21872009  0.77271054  0.14404035     0.38000
H844        H  0.13354713  0.94611223  0.23304157     0.32400
H845        H  0.11184577  0.86440309  0.24234519     0.31300
H846        H  0.15985058  0.78492610  0.24696595     0.33000
H847        H  0.25507134  0.74060900  0.19610444     0.31900
H848        H  0.08296159  0.93765787  0.19014122     0.35900
H849        H  0.06439894  0.86947315  0.16406677     0.28700
H850        H  0.32311533  0.91880191  0.20189383     0.32900
H851        H  0.29753190  0.81027619  0.18059505     0.35800
H852        H  0.14245525  0.85407881  0.25521898     0.28400
H853        H  0.05893022  0.82831634  0.16063044     0.41200
H854        H  0.15745439  0.94292852  0.13964919     0.31300
H855        H  0.16380201  0.98410260  0.17034923     0.38900
H856        H  0.21760132  0.74484466  0.20514280     0.30800
H857        H  0.22936257  0.87556395  0.12077155     0.30800
H858        H  0.32477287  0.87683746  0.20157221     0.31100
Zr859      Zr  0.39635130  0.02734879  0.05465942     2.17500
O860        O  0.40343294  0.96355255  0.04905219    -0.51300
O861        O  0.34593544  0.01923307  0.03472790    -0.74500
O862        O  0.36616767  0.99239595  0.08051577    -0.81300
O863        O  0.46205345  0.06648631  0.01956310    -0.83000
O864        O  0.39109466  0.01359460  0.10508348    -0.78600
O865        O  0.44359537  0.01361108  0.03180744    -0.90300
O866        O  0.31090437  0.06842864  0.03765323    -0.76200
O867        O  0.35537409  0.06053732  0.07232174    -0.85700
O868        O  0.38302203  0.08121377  0.03791185    -0.85400
O869        O  0.42958947  0.04057798  0.08084843    -0.72200
O870        O  0.44808517  0.06434467  0.05003400    -0.84300
Zr871      Zr  0.42652351  0.16098353  0.07798476     2.26400
Zr872      Zr  0.38824104  0.07579261  0.09814652     2.06300
Zr873      Zr  0.43515426  0.11777200  0.03363442     2.10000
Zr874      Zr  0.34145484  0.11303714  0.05580292     1.78800
O875        O  0.47371421  0.12610974  0.00786005    -0.93100
O876        O  0.28786295  0.10191308  0.07339702    -0.40900
O877        O  0.39387934  0.14985708  0.05135429    -0.77500
O878        O  0.37145114  0.12905001  0.08273690    -0.96200
O879        O  0.44233904  0.10825585  0.09375368    -0.89500
O880        O  0.46705830  0.12900749  0.05967342    -0.92400
C881        C  0.31815916  0.03763306  0.03093882     1.01400
C882        C  0.46305170  0.03220737  0.02071458     1.14300
C883        C  0.37033797  0.99173357  0.09769590     1.05100
O884        O  0.32488964  0.08246322  0.10387589    -0.94500
O885        O  0.40683658  0.11396082  0.12158956    -0.90300
O886        O  0.42093197  0.16838703  0.10994087    -0.83400
C887        C  0.41482709  0.14699560  0.12299257     1.11700
O888        O  0.51435687  0.01960388  0.07429042    -0.96500
Zr889      Zr  0.48202999  0.07600186  0.07528992     1.88900
O890        O  0.48700836  0.17575688  0.08539668    -0.73100
O891        O  0.37672604  0.06081089  0.12915553    -0.52400
O892        O  0.50318305  0.05865406  0.10433098    -0.97100
O893        O  0.53028988  0.07198565  0.05361669    -0.54300
O894        O  0.51972568  0.12501963  0.08387775    -0.73700
C895        C  0.51636779  0.15871693  0.08651459     0.98700
O896        O  0.39698964  0.21793937  0.08334019    -0.62500
O897        O  0.39228839  0.13601400  0.01150689    -0.57300
O898        O  0.45213309  0.20714447  0.05889697    -0.94000
O899        O  0.46534116  0.17799847  0.03336394    -0.92400
O900        O  0.31758583  0.14165119  0.02956049    -0.92700
O901        O  0.31217575  0.17074191  0.05943076    -0.91500
C902        C  0.46709859  0.20581316  0.04358761     1.17500
H903        H  0.37428576  0.07611616  0.02626353     0.33500
H904        H  0.35588820  0.14341957  0.09004070     0.44300
H905        H  0.48845884  0.14196541  0.05658657     0.37800
H906        H  0.43787554  0.01859811  0.08608522     0.34300
H907        H  0.28362373  0.12414844  0.08019253     0.26100
H908        H  0.35628010  0.04399332  0.12945807     0.32100
H909        H  0.49731164  0.07911442  0.11211576     0.38000
H910        H  0.29214231  0.13466649  0.02937983     0.32400
H911        H  0.39762070  0.16165422  0.00931569     0.31300
H912        H  0.46379975  0.14674710  0.00137166     0.33000
H913        H  0.52065539  0.05743338  0.04385426     0.31900
H914        H  0.33187022  0.18829489  0.06041807     0.35900
H915        H  0.38745591  0.22504298  0.07172460     0.28700
H916        H  0.37897036  0.95458305  0.04709658     0.32900
H917        H  0.49862508  0.00188810  0.08023175     0.35800
H918        H  0.39991512  0.12369735  0.00054707     0.28400
H919        H  0.37563077  0.21171894  0.09047851     0.41200
H920        H  0.32256909  0.10536853  0.11031761     0.31300
H921        H  0.26838992  0.10106813  0.06472900     0.38900
H922        H  0.53251611  0.09637528  0.04856746     0.30800
H923        H  0.39728284  0.04672937  0.13329986     0.30800
H924        H  0.41032762  0.95314190  0.06053269     0.31100
Zr925      Zr  0.27506426  0.37911824  0.19658889     2.17500
O926        O  0.21041664  0.38164365  0.19859109    -0.51300
O927        O  0.27021216  0.43340492  0.21479074    -0.74500
O928        O  0.25286428  0.34327654  0.22229799    -0.81300
O929        O  0.27717000  0.39989434  0.14486480    -0.83000
O930        O  0.30241963  0.34698535  0.23752057    -0.78600
O931        O  0.24070449  0.40055293  0.16893078    -0.90300
O932        O  0.32505569  0.45895587  0.21653483    -0.76200
O933        O  0.32692858  0.38427548  0.21531640    -0.85700
O934        O  0.31735576  0.41732997  0.18208780    -0.85400
O935        O  0.30147081  0.31984874  0.20177078    -0.72200
O936        O  0.29060987  0.34823905  0.16978698    -0.84300
Zr937      Zr  0.40601708  0.33296212  0.17976133     2.26400
Zr938      Zr  0.35321199  0.32604738  0.22084027     2.06300
Zr939      Zr  0.33458838  0.38572799  0.15593602     2.10000
Zr940      Zr  0.36782182  0.42288525  0.20069320     1.78800
O941        O  0.32661861  0.37393638  0.12465731    -0.93100
O942        O  0.39368143  0.43946735  0.22887640    -0.40900
O943        O  0.38532139  0.39268751  0.17424648    -0.77500
O944        O  0.39376266  0.36537149  0.20628906    -0.96200
O945        O  0.36471161  0.29499680  0.19433755    -0.89500
O946        O  0.35653053  0.32661535  0.16033798    -0.92400
C947        C  0.29176925  0.45774802  0.22025410     1.01400
C948        C  0.24669376  0.40521328  0.15189045     1.14300
C949        C  0.27213289  0.33249780  0.23525318     1.05100
O950        O  0.37470018  0.33977168  0.25023266    -0.94500
O951        O  0.41468707  0.29948941  0.22520048    -0.90300
O952        O  0.44850023  0.31210307  0.20095026    -0.83400
C953        C  0.44472642  0.29873704  0.21640778     1.11700
O954        O  0.25368045  0.27338874  0.16898605    -0.96500
Zr955      Zr  0.31490930  0.29008797  0.17523796     1.88900
O956        O  0.41499218  0.26950951  0.17555073    -0.73100
O957        O  0.33626487  0.26723783  0.23212200    -0.52400
O958        O  0.29043996  0.23905110  0.19145606    -0.97100
O959        O  0.30841071  0.26940640  0.14489057    -0.54300
O960        O  0.36018694  0.24554366  0.17233689    -0.73700
C961        C  0.39403645  0.24293634  0.17309960     0.98700
O962        O  0.46765792  0.35246511  0.17597884    -0.62500
O963        O  0.34171090  0.44936578  0.14965948    -0.57300
O964        O  0.42151645  0.33680801  0.14933015    -0.94000
O965        O  0.38784359  0.38206577  0.13838723    -0.92400
O966        O  0.36994744  0.47790328  0.18338711    -0.92700
O967        O  0.42859366  0.44563058  0.19909055    -0.91500
C968        C  0.41429069  0.36074284  0.13795627     1.17500
H969        H  0.30695251  0.44031956  0.17946263     0.33500
H970        H  0.41500595  0.36858601  0.21316776     0.44300
H971        H  0.36239098  0.31518607  0.14926839     0.37800
H972        H  0.28544957  0.30248462  0.20678019     0.34300
H973        H  0.39037164  0.46571514  0.22978315     0.26100
H974        H  0.35167306  0.25033398  0.22554884     0.32100
H975        H  0.30246838  0.23942102  0.20299821     0.38000
H976        H  0.37649992  0.49678715  0.19192577     0.32400
H977        H  0.36744064  0.45253057  0.14721266     0.31300
H978        H  0.32873630  0.34761700  0.12351090     0.33000
H979        H  0.33214407  0.26065755  0.14116025     0.31900
H980        H  0.44102335  0.42926509  0.19083237     0.35900
H981        H  0.46698639  0.37348620  0.16803027     0.28700
H982        H  0.20513409  0.39119830  0.21051246     0.32900
H983        H  0.24005441  0.29589230  0.17021326     0.35800
H984        H  0.33031873  0.45281183  0.13807062     0.28400
H985        H  0.47938519  0.33342495  0.16896468     0.41200
H986        H  0.37836128  0.36604436  0.25014645     0.31300
H987        H  0.37724200  0.42926666  0.23787437     0.38900
H988        H  0.30467001  0.29140260  0.13785289     0.30800
H989        H  0.34557208  0.26677861  0.24428640     0.30800
H990        H  0.20238212  0.35636638  0.19900197     0.31100
Zr991      Zr  0.14181727  0.52143375  0.05376613     2.17500
O992        O  0.13862339  0.45681166  0.04951532    -0.51300
O993        O  0.19224577  0.51505039  0.03256898    -0.74500
O994        O  0.09746935  0.50648932  0.03028659    -0.81300
O995        O  0.17868230  0.51843022  0.10244775    -0.83000
O996        O  0.09360620  0.55810727  0.01530394    -0.78600
O997        O  0.16090649  0.48170785  0.08043316    -0.90300
O998        O  0.22247312  0.56794981  0.03114400    -0.76200
O999        O  0.14332858  0.57505634  0.03572463    -0.85700
O1000       O  0.18735372  0.56053735  0.06471570    -0.85400
O1001       O  0.08341375  0.55085274  0.05423241    -0.72200
O1002       O  0.12345777  0.53740318  0.08310545    -0.84300
Zr1003     Zr  0.11234524  0.65402789  0.07749907     2.26400
Zr1004     Zr  0.08676673  0.60554909  0.03652551     2.06300
Zr1005     Zr  0.16790188  0.57831649  0.09352582     2.10000
Zr1006     Zr  0.18868378  0.61310684  0.04648851     1.78800
O1007       O  0.19359742  0.56203399  0.12182959    -0.93100
O1008       O  0.19236705  0.62809165  0.01516409    -0.40900
O1009       O  0.17164042  0.63078361  0.07584936    -0.77500
O1010       O  0.13234394  0.64320519  0.04784191    -0.96200
O1011       O  0.06829291  0.61572502  0.06577210    -0.89500
O1012       O  0.10876140  0.60145872  0.09538301    -0.92400
C1013       C  0.21775292  0.53528394  0.02669042     1.01400
C1014       C  0.17315235  0.48715064  0.09647474     1.14300
C1015       C  0.08326117  0.52601235  0.01805814     1.05100
O1016       O  0.10103001  0.63620781  0.00893918    -0.94500
O1017       O  0.05495499  0.66496361  0.03802755    -0.90300
O1018       O  0.07929188  0.69717119  0.06031684    -0.83400
C1019       C  0.05791470  0.69413533  0.04731219     1.11700
O1020       O  0.05603456  0.50049403  0.09101171    -0.96500
Zr1021     Zr  0.06526302  0.56332922  0.08349623     1.88900
O1022       O  0.05183245  0.66283360  0.08663699    -0.73100
O1023       O  0.02581329  0.59450126  0.02731554    -0.52400
O1024       O  0.01027510  0.54123182  0.07061582    -0.97100
O1025       O  0.05177420  0.55436822  0.11476474    -0.54300
O1026       O  0.02302765  0.61008938  0.09078496    -0.73700
C1027       C  0.02413092  0.64445684  0.09057130     0.98700
O1028       O  0.13831844  0.71339330  0.08139882    -0.62500
O1029       O  0.22850649  0.60021200  0.08965177    -0.57300
O1030       O  0.12587665  0.66530919  0.10826555    -0.94000
O1031       O  0.15735093  0.61758032  0.11808443    -0.92400
O1032       O  0.24883582  0.62417589  0.05684826    -0.92700
O1033       O  0.20856964  0.67405963  0.04023166    -0.91500
C1034       C  0.14159513  0.64747354  0.12040790     1.17500
H1035       H  0.21013054  0.54871955  0.06512996     0.33500
H1036       H  0.13357855  0.66537488  0.04125693     0.44300
H1037       H  0.09959817  0.60544834  0.10712634     0.37800
H1038       H  0.06399360  0.53608686  0.05032311     0.34300
H1039       H  0.21808667  0.62768966  0.01217659     0.26100
H1040       H  0.02713949  0.59278810  0.01428774     0.32100
H1041       H  0.99529670  0.53389612  0.08083974     0.38000
H1042       H  0.26149851  0.60120887  0.05519803     0.32400
H1043       H  0.23257869  0.61604933  0.09990975     0.31300
H1044       H  0.21972111  0.56222072  0.12006625     0.33000
H1045       H  0.04496564  0.57816920  0.11939982     0.31900
H1046       H  0.20317586  0.68751609  0.05117643     0.35900
H1047       H  0.14449900  0.72163436  0.06931439     0.28700
H1048       H  0.14489383  0.45299669  0.03693864     0.32900
H1049       H  0.06616674  0.48718214  0.08085778     0.35800
H1050       H  0.24385527  0.57917631  0.09168718     0.28400
H1051       H  0.11833471  0.72888463  0.08516270     0.41200
H1052       H  0.07862750  0.63555598  0.00220752     0.31300
H1053       H  0.18237154  0.60708539  0.00895216     0.38900
H1054       H  0.07504111  0.54935269  0.12019346     0.30800
H1055       H  0.02015850  0.56989693  0.03137124     0.30800
H1056       H  0.11301077  0.45073031  0.05044466     0.31100
Zr1057     Zr  0.28376219  0.87556764  0.80197226     2.17500
O1058       O  0.22013527  0.87501281  0.79617139    -0.51300
O1059       O  0.28089807  0.92739966  0.78185024    -0.74500
O1060       O  0.25009741  0.90438309  0.82893429    -0.81300
O1061       O  0.31309240  0.82789423  0.76096193    -0.83000
O1062       O  0.28452748  0.90226611  0.85343406    -0.78600
O1063       O  0.26821821  0.82569932  0.78056031    -0.90300
O1064       O  0.33504870  0.95495117  0.78232128    -0.76200
O1065       O  0.32356692  0.91088983  0.81900133    -0.85700
O1066       O  0.33760415  0.88373698  0.78409666    -0.85400
O1067       O  0.29547695  0.84138522  0.82819599    -0.72200
O1068       O  0.31409543  0.82031513  0.79604693    -0.84300
Zr1069     Zr  0.41320392  0.82810314  0.82114216     2.26400
Zr1070     Zr  0.33813518  0.87548211  0.84427126     2.06300
Zr1071     Zr  0.36708933  0.82807206  0.77802541     2.10000
Zr1072     Zr  0.37504848  0.92104054  0.80114830     1.78800
O1073       O  0.36309448  0.77329232  0.76072667    -0.93100
O1074       O  0.36327364  0.97626539  0.81728466    -0.40900
O1075       O  0.40464779  0.86484667  0.79532021    -0.77500
O1076       O  0.39027458  0.88700179  0.82702637    -0.96200
O1077       O  0.36146170  0.81766714  0.83873853    -0.89500
O1078       O  0.37419270  0.79338468  0.80349325    -0.92400
C1079       C  0.30305952  0.95184275  0.77669726     1.01400
C1080       C  0.28354064  0.81427316  0.76609433     1.14300
C1081       C  0.25606848  0.91119205  0.84577630     1.05100
O1082       O  0.35119042  0.93203590  0.85884431    -0.94500
O1083       O  0.38396984  0.86533248  0.86524002    -0.90300
O1084       O  0.42530522  0.83005357  0.85240898    -0.83400
C1085       C  0.41207424  0.84646071  0.86579274     1.11700
O1086       O  0.25984922  0.76484948  0.82388788    -0.96500
Zr1087     Zr  0.32157690  0.78454821  0.82111324     1.88900
O1088       O  0.42086164  0.76353906  0.82529712    -0.73100
O1089       O  0.31156020  0.84606627  0.86997873    -0.52400
O1090       O  0.31038735  0.76074948  0.85062506    -0.97100
O1091       O  0.30070173  0.74053191  0.79990928    -0.54300
O1092       O  0.36544418  0.73928108  0.82509908    -0.73700
C1093       C  0.39931980  0.73664363  0.82576903     0.98700
O1094       O  0.47327739  0.85021799  0.82644458    -0.62500
O1095       O  0.38911583  0.86097056  0.75230400    -0.57300
O1096       O  0.45737263  0.80625529  0.80093832    -0.94000
O1097       O  0.42788418  0.79912854  0.77514965    -0.92400
O1098       O  0.41059747  0.93931017  0.77556462    -0.92700
O1099       O  0.43030499  0.95168543  0.80834803    -0.91500
C1100       C  0.45577459  0.79521333  0.78503598     1.17500
H1101       H  0.33316160  0.89306272  0.77247257     0.33500
H1102       H  0.40724897  0.90032448  0.83392042     0.44300
H1103       H  0.38403623  0.77143571  0.79892179     0.37800
H1104       H  0.27409636  0.83799323  0.83518903     0.34300
H1105       H  0.37190337  0.99558220  0.80932859     0.26100
H1106       H  0.32696513  0.82520679  0.87235662     0.32100
H1107       H  0.28927214  0.77383638  0.85506664     0.38000
H1108       H  0.39479393  0.93602840  0.76532807     0.32400
H1109       H  0.39933631  0.84236530  0.74448093     0.31300
H1110       H  0.37890574  0.77743143  0.75037693     0.33000
H1111       H  0.29765528  0.71811712  0.80676226     0.31900
H1112       H  0.44776316  0.93219717  0.80993640     0.35900
H1113       H  0.47037825  0.87094015  0.83446885     0.28700
H1114       H  0.21832543  0.87441076  0.78314788     0.32900
H1115       H  0.24554615  0.78691941  0.82283065     0.35800
H1116       H  0.36748405  0.86899282  0.74612813     0.28400
H1117       H  0.48474073  0.83155268  0.83370029     0.41200
H1118       H  0.37152057  0.94241314  0.85216250     0.31300
H1119       H  0.33708930  0.97892714  0.81728090     0.38900
H1120       H  0.32142026  0.73612181  0.79205110     0.30800
H1121       H  0.31596403  0.86263025  0.87991986     0.30800
H1122       H  0.21189517  0.89929768  0.79941122     0.31100
Zr1123     Zr  0.14673206  0.01605175  0.94759099     2.17500
O1124       O  0.14615235  0.95181638  0.95339045    -0.51300
O1125       O  0.19711861  0.01098619  0.96818394    -0.74500
O1126       O  0.17379599  0.98125298  0.92073514    -0.81300
O1127       O  0.10002752  0.04297573  0.98747210    -0.83000
O1128       O  0.18488373  0.02163042  0.89893321    -0.78600
O1129       O  0.09661408  0.99800302  0.96841955    -0.90300
O1130       O  0.22552841  0.06498043  0.96917368    -0.76200
O1131       O  0.18658091  0.05834231  0.93402217    -0.85700
O1132       O  0.15058292  0.06851759  0.96655545    -0.85400
O1133       O  0.12023869  0.03222543  0.91992787    -0.72200
O1134       O  0.08886866  0.04366615  0.95153256    -0.84300
Zr1135     Zr  0.10660373  0.15163111  0.92968125     2.26400
Zr1136     Zr  0.15935995  0.07715082  0.90718583     2.06300
Zr1137     Zr  0.09290785  0.09649106  0.97018565     2.10000
Zr1138     Zr  0.19134390  0.10895987  0.95303843     1.78800
O1139       O  0.03510809  0.08322420  0.98358580    -0.93100
O1140       O  0.24880472  0.11010030  0.93780714    -0.40900
O1141       O  0.13429045  0.13724375  0.95702924    -0.77500
O1142       O  0.16579120  0.12827534  0.92580986    -0.96200
O1143       O  0.10235899  0.09998487  0.91147709    -0.89500
O1144       O  0.06558360  0.11028388  0.94296647    -0.92400
C1145       C  0.22186121  0.03207197  0.97377917     1.01400
C1146       C  0.08548210  0.01381690  0.98272878     1.14300
C1147       C  0.18623169  0.98989825  0.90494157     1.05100
O1148       O  0.21833606  0.10076979  0.90029975    -0.94500
O1149       O  0.13747834  0.12041396  0.88593753    -0.90300
O1150       O  0.12183956  0.17102648  0.90033203    -0.83400
C1151       C  0.12705201  0.15310267  0.88618513     1.11700
O1152       O  0.05407420  0.99831980  0.91301010    -0.96500
Zr1153     Zr  0.06273954  0.05855391  0.92457026     1.88900
O1154       O  0.05077340  0.15610042  0.91409852    -0.73100
O1155       O  0.15001078  0.05889269  0.87660811    -0.52400
O1156       O  0.00979857  0.04733487  0.90707494    -0.97100
O1157       O  0.01331914  0.05819973  0.94575492    -0.54300
O1158       O  0.06334889  0.10404597  0.90237791    -0.73700
C1159       C  0.04348593  0.13134695  0.90316794     0.98700
O1160       O  0.12813391  0.21335246  0.93016613    -0.62500
O1161       O  0.11469452  0.12368406  0.99719538    -0.57300
O1162       O  0.07149233  0.18821963  0.94954742    -0.94000
O1163       O  0.05857892  0.15350462  0.97347032    -0.92400
O1164       O  0.19844567  0.13567512  0.98211030    -0.92700
O1165       O  0.22020237  0.16750424  0.95284932    -0.91500
C1166       C  0.05569591  0.18282850  0.96439678     1.17500
H1167       H  0.15902645  0.06247797  0.97815689     0.33500
H1168       H  0.18087371  0.14607115  0.92020667     0.44300
H1169       H  0.04237779  0.12084438  0.94457791     0.37800
H1170       H  0.11822526  0.01200328  0.91208823     0.34300
H1171       H  0.26636351  0.11498263  0.94714947     0.26100
H1172       H  0.17346816  0.05244578  0.87149912     0.32100
H1173       H  0.99334506  0.06722117  0.90983227     0.38000
H1174       H  0.19963188  0.11522598  0.99041320     0.32400
H1175       H  0.09314436  0.12722756  0.00460361     0.31300
H1176       H  0.03245035  0.10054864  0.99338476     0.33000
H1177       H  0.00220297  0.03426592  0.94448750     0.31900
H1178       H  0.20280514  0.18364890  0.94725276     0.35900
H1179       H  0.13319103  0.21826891  0.94272759     0.28700
H1180       H  0.17003415  0.94325715  0.94980174     0.32900
H1181       H  0.05917625  0.98231578  0.92308249     0.35800
H1182       H  0.12785175  0.10435051  0.00319249     0.28400
H1183       H  0.15195720  0.21248635  0.92449081     0.41200
H1184       H  0.22253104  0.09426774  0.88779811     0.31300
H1185       H  0.25330949  0.08491922  0.93440247     0.38900
H1186       H  0.99556282  0.07512280  0.94105594     0.30800
H1187       H  0.13628485  0.03619806  0.87715661     0.30800
H1188       H  0.12984499  0.94172469  0.94449309     0.31100
Zr1189     Zr  0.75560025  0.62961405  0.80319317     2.17500
O1190       O  0.81824289  0.62574771  0.79495523    -0.51300
O1191       O  0.75316541  0.57615283  0.78447285    -0.74500
O1192       O  0.78997288  0.59958763  0.82906875    -0.81300
O1193       O  0.72682274  0.67213317  0.76166659    -0.83000
O1194       O  0.75730791  0.60379856  0.85442719    -0.78600
O1195       O  0.77349987  0.67362915  0.77966266    -0.90300
O1196       O  0.69691167  0.55380067  0.78631398    -0.76200
O1197       O  0.71497229  0.59844955  0.82196428    -0.85700
O1198       O  0.70019642  0.62431594  0.78706062    -0.85400
O1199       O  0.74834069  0.66770718  0.82853447    -0.72200
O1200       O  0.72944708  0.68715088  0.79688434    -0.84300
Zr1201     Zr  0.63096640  0.68762272  0.82451896     2.26400
Zr1202     Zr  0.70578412  0.63700994  0.84678509     2.06300
Zr1203     Zr  0.67503307  0.68146278  0.78029543     2.10000
Zr1204     Zr  0.66135437  0.59131527  0.80589007     1.78800
O1205       O  0.68514332  0.73511352  0.76255603    -0.93100
O1206       O  0.66992426  0.53804843  0.82395398    -0.40900
O1207       O  0.63591995  0.64888679  0.79931187    -0.77500
O1208       O  0.65119759  0.62825798  0.83138746    -0.96200
O1209       O  0.68440610  0.69568700  0.84055117    -0.89500
O1210       O  0.67052292  0.71846148  0.80514465    -0.92400
C1211       C  0.72878217  0.55374517  0.77998209     1.01400
C1212       C  0.75740735  0.68452543  0.76556386     1.14300
C1213       C  0.78476110  0.59303787  0.84603562     1.05100
O1214       O  0.68501031  0.58282571  0.86167165    -0.94500
O1215       O  0.66557864  0.65454802  0.86990309    -0.90300
O1216       O  0.62143617  0.68439431  0.85620780    -0.83400
C1217       C  0.63625111  0.67160258  0.87005351     1.11700
O1218       O  0.78623659  0.74392816  0.82458789    -0.96500
Zr1219     Zr  0.72434730  0.72577323  0.82126909     1.88900
O1220       O  0.62791866  0.75244067  0.82822671    -0.73100
O1221       O  0.74167462  0.66350120  0.86996126    -0.52400
O1222       O  0.73369801  0.75132693  0.85043112    -0.97100
O1223       O  0.74463895  0.76733247  0.79845797    -0.54300
O1224       O  0.68356640  0.77469817  0.82413890    -0.73700
C1225       C  0.65008032  0.77861572  0.82655762     0.98700
O1226       O  0.56889743  0.67343706  0.83128498    -0.62500
O1227       O  0.64843785  0.64846227  0.75606098    -0.57300
O1228       O  0.58762293  0.70983265  0.80390403    -0.94000
O1229       O  0.61589802  0.71266322  0.77724222    -0.92400
O1230       O  0.62329238  0.57260764  0.78173325    -0.92700
O1231       O  0.60344748  0.56732725  0.81469349    -0.91500
C1232       C  0.58859034  0.71854628  0.78753126     1.17500
H1233       H  0.70301172  0.61387616  0.77551205     0.33500
H1234       H  0.63407958  0.61662109  0.83911266     0.44300
H1235       H  0.66126047  0.74035409  0.80027573     0.37800
H1236       H  0.77060462  0.67026758  0.83463409     0.34300
H1237       H  0.65481000  0.51941265  0.81851737     0.26100
H1238       H  0.73354223  0.68863332  0.87075793     0.32100
H1239       H  0.73402246  0.77759443  0.84855871     0.38000
H1240       H  0.63770076  0.57660148  0.77088564     0.32400
H1241       H  0.62255720  0.65261935  0.75730352     0.31300
H1242       H  0.67035390  0.73163267  0.75196628     0.33000
H1243       H  0.75129348  0.78946098  0.80480826     0.31900
H1244       H  0.58673395  0.58739822  0.81288523     0.35900
H1245       H  0.56934023  0.64938031  0.83679739     0.28700
H1246       H  0.82401802  0.59996307  0.79586588     0.32900
H1247       H  0.79502308  0.73037328  0.83488110     0.35800
H1248       H  0.65557327  0.66203004  0.74534404     0.28400
H1249       H  0.56176064  0.68985170  0.84093177     0.41200
H1250       H  0.69863015  0.58187931  0.87276090     0.31300
H1251       H  0.69452676  0.53025377  0.82127324     0.38900
H1252       H  0.72292266  0.77378198  0.79192519     0.30800
H1253       H  0.73307822  0.65216849  0.88104392     0.30800
H1254       H  0.83105715  0.63714614  0.80482382     0.31100
Zr1255     Zr  0.89481289  0.48055065  0.94424758     2.17500
O1256       O  0.90721883  0.54439170  0.94688285    -0.51300
O1257       O  0.84178481  0.49248588  0.96186415    -0.74500
O1258       O  0.86913157  0.51537317  0.91749052    -0.81300
O1259       O  0.95215105  0.44765139  0.98399066    -0.83000
O1260       O  0.86435099  0.47729045  0.89428000    -0.78600
O1261       O  0.93787532  0.49774192  0.96831867    -0.90300
O1262       O  0.80733027  0.44218301  0.96121299    -0.76200
O1263       O  0.85743728  0.44336033  0.92685454    -0.85700
O1264       O  0.87814521  0.42968570  0.96279558    -0.85400
O1265       O  0.93024038  0.46259737  0.91921092    -0.72200
O1266       O  0.94520082  0.44576069  0.95322221    -0.84300
Zr1267     Zr  0.92688011  0.34411912  0.92793664     2.26400
Zr1268     Zr  0.89317428  0.42310841  0.90247886     2.06300
Zr1269     Zr  0.92875078  0.39375233  0.97047344     2.10000
Zr1270     Zr  0.83898018  0.39485539  0.94521800     1.78800
O1271       O  0.96203813  0.38480790  0.99755276    -0.93100
O1272       O  0.78775572  0.40583783  0.92664328    -0.40900
O1273       O  0.88978604  0.35877649  0.95285719    -0.77500
O1274       O  0.87265020  0.37372301  0.92004882    -0.96200
O1275       O  0.94619762  0.39480862  0.91125160    -0.89500
O1276       O  0.96529989  0.37889759  0.94597191    -0.92400
C1277       C  0.81405999  0.47432679  0.96635492     1.01400
C1278       C  0.95454587  0.48153781  0.98108747     1.14300
C1279       C  0.85954932  0.50792572  0.90122729     1.05100
O1280       O  0.84258074  0.40059406  0.88596813    -0.94500
O1281       O  0.92081065  0.37910025  0.88327210    -0.90300
O1282       O  0.91804519  0.32645849  0.89787172    -0.83400
C1283       C  0.92420881  0.34498822  0.88395799     1.11700
O1284       O  0.99993569  0.48463139  0.91306924    -0.96500
Zr1285     Zr  0.98208380  0.43120128  0.92953403     1.88900
O1286       O  0.98254872  0.33991089  0.91197155    -0.73100
O1287       O  0.91758398  0.45248325  0.87608760    -0.52400
O1288       O  0.04123894  0.44137789  0.91694942    -0.97100
O1289       O  0.01049520  0.45239501  0.95624126    -0.54300
O1290       O  0.01858486  0.37983782  0.92488592    -0.73700
C1291       C  0.01229691  0.35599528  0.91348257     0.98700
O1292       O  0.90409658  0.28320118  0.92458939    -0.62500
O1293       O  0.88111615  0.37859447  0.99132290    -0.57300
O1294       O  0.95377505  0.30322451  0.94851880    -0.94000
O1295       O  0.95971803  0.33437788  0.97403097    -0.92400
O1296       O  0.81587195  0.36557527  0.97175230    -0.92700
O1297       O  0.80276240  0.34166774  0.94008966    -0.91500
C1298       C  0.96473609  0.30605808  0.96437477     1.17500
H1299       H  0.86778627  0.43684956  0.97392339     0.33500
H1300       H  0.85817595  0.35785405  0.91304506     0.44300
H1301       H  0.98608009  0.36637785  0.94997074     0.37800
H1302       H  0.93605579  0.48343960  0.91217937     0.34300
H1303       H  0.78353981  0.43193416  0.92752444     0.26100
H1304       H  0.89748618  0.45665704  0.86802426     0.32100
H1305       H  0.05738009  0.44296234  0.92715377     0.38000
H1306       H  0.79271986  0.37719284  0.97419111     0.32400
H1307       H  0.88922566  0.35651639  0.99729105     0.31300
H1308       H  0.94468458  0.38761633  0.00735577     0.33000
H1309       H  0.02731628  0.47120775  0.95217384     0.31900
H1310       H  0.81882344  0.32471647  0.93394251     0.35900
H1311       H  0.89341116  0.27688949  0.93618635     0.28700
H1312       H  0.88411269  0.55633770  0.94503204     0.32900
H1313       H  0.99815075  0.50434510  0.92176075     0.35800
H1314       H  0.88206601  0.39738507  0.00051383     0.28400
H1315       H  0.92526686  0.26764942  0.92341450     0.41200
H1316       H  0.83989813  0.41768629  0.87606818     0.31300
H1317       H  0.79669887  0.40223023  0.91444310     0.38900
H1318       H  0.02584767  0.43232101  0.95993558     0.30800
H1319       H  0.92550401  0.47664853  0.87977994     0.30800
H1320       H  0.92160878  0.55039299  0.93624708     0.31100
Zr1321     Zr  0.78092864  0.13826900  0.80188497     2.17500
O1322       O  0.71634199  0.14383325  0.80165238    -0.51300
O1323       O  0.76618220  0.08677578  0.78264478    -0.74500
O1324       O  0.76058011  0.18235793  0.77949021    -0.81300
O1325       O  0.78640544  0.10511471  0.85135188    -0.83000
O1326       O  0.80799096  0.17767060  0.76229971    -0.78600
O1327       O  0.74668751  0.12079649  0.83041429    -0.90300
O1328       O  0.81785062  0.05927094  0.77481844    -0.76200
O1329       O  0.82904460  0.13529269  0.78029471    -0.85700
O1330       O  0.82039497  0.09134538  0.81080030    -0.85400
O1331       O  0.81250898  0.19622747  0.79978075    -0.72200
O1332       O  0.80440763  0.15623923  0.82986980    -0.84300
Zr1333     Zr  0.91795748  0.16333616  0.81506056     2.26400
Zr1334     Zr  0.86127321  0.19175516  0.77818340     2.06300
Zr1335     Zr  0.84503578  0.11014578  0.83837589     2.10000
Zr1336     Zr  0.86703728  0.08821283  0.78903922     1.78800
O1337       O  0.83865888  0.09699486  0.86977185    -0.93100
O1338       O  0.88345256  0.08544913  0.75786459    -0.40900
O1339       O  0.89151873  0.10481337  0.81688565    -0.77500
O1340       O  0.89885277  0.14401889  0.78676359    -0.96200
O1341       O  0.87996459  0.21012736  0.80627198    -0.89500
O1342       O  0.87261896  0.16788270  0.83726034    -0.92400
C1343       C  0.78408947  0.06266993  0.77424009     1.01400
C1344       C  0.75437043  0.11003324  0.84645420     1.14300
C1345       C  0.77912996  0.19356204  0.76616011     1.05100
O1346       O  0.88199061  0.18402413  0.74789250    -0.94500
O1347       O  0.92336947  0.21852473  0.77436161    -0.90300
O1348       O  0.95809141  0.19454618  0.79555682    -0.83400
C1349       C  0.95405252  0.21448841  0.78201267     1.11700
O1350       O  0.77421491  0.23040449  0.83776454    -0.96500
Zr1351     Zr  0.83358153  0.21310663  0.82781352     1.88900
O1352       O  0.93534631  0.22038775  0.82689594    -0.73100
O1353       O  0.84608739  0.25317415  0.77055424    -0.52400
O1354       O  0.81655831  0.27246747  0.81768455    -0.97100
O1355       O  0.83505634  0.22239261  0.85963390    -0.54300
O1356       O  0.88432235  0.25042359  0.83301018    -0.73700
C1357       C  0.91821424  0.24791880  0.83217409     0.98700
O1358       O  0.97635069  0.13625089  0.81129982    -0.62500
O1359       O  0.85119270  0.04538398  0.83589559    -0.57300
O1360       O  0.93994625  0.14382807  0.84257909    -0.94000
O1361       O  0.89693334  0.11234818  0.85728302    -0.92400
O1362       O  0.86801531  0.02467804  0.79634712    -0.92700
O1363       O  0.92592962  0.06139510  0.78727992    -0.91500
C1364       C  0.92811802  0.12609722  0.85577155     1.17500
H1365       H  0.80777527  0.06884381  0.81195950     0.33500
H1366       H  0.91879965  0.14190361  0.77869290     0.44300
H1367       H  0.88175311  0.17534019  0.84852689     0.37800
H1368       H  0.79745595  0.21617775  0.79686562     0.34300
H1369       H  0.88124377  0.05978068  0.75475161     0.26100
H1370       H  0.86222948  0.26808102  0.77773134     0.32100
H1371       H  0.83290202  0.27758471  0.80765427     0.38000
H1372       H  0.87169628  0.01239122  0.78489210     0.32400
H1373       H  0.87193119  0.03956255  0.84329028     0.31300
H1374       H  0.83729533  0.07055499  0.87063941     0.33000
H1375       H  0.81735191  0.20526646  0.86453509     0.31900
H1376       H  0.94140500  0.08004230  0.78188379     0.35900
H1377       H  0.99153689  0.14669614  0.82058497     0.28700
H1378       H  0.70923254  0.13832341  0.78940804     0.32900
H1379       H  0.76014480  0.20791469  0.83797914     0.35800
H1380       H  0.83048957  0.03543369  0.84247119     0.28400
H1381       H  0.97299490  0.11086482  0.81470872     0.41200
H1382       H  0.89332779  0.16014323  0.74775603     0.31300
H1383       H  0.86357635  0.09714337  0.75166466     0.38900
H1384       H  0.82441029  0.24630691  0.86154951     0.30800
H1385       H  0.85508225  0.25622777  0.75830864     0.30800
H1386       H  0.71150247  0.16971545  0.80314490     0.31100
Zr1387     Zr  0.64850046  0.99492572  0.94458175     2.17500
O1388       O  0.65349367  0.05824167  0.95197164    -0.51300
O1389       O  0.69941497  0.99582873  0.96530452    -0.74500
O1390       O  0.60536422  0.00872751  0.96920018    -0.81300
O1391       O  0.67733318  0.00506251  0.89413227    -0.83000
O1392       O  0.59991588  0.95594132  0.98331630    -0.78600
O1393       O  0.66743458  0.03773385  0.91893911    -0.90300
O1394       O  0.72131770  0.93941631  0.96818233    -0.76200
O1395       O  0.65152301  0.93882471  0.96044471    -0.85700
O1396       O  0.69071839  0.95741751  0.92970769    -0.85400
O1397       O  0.58949011  0.96656639  0.94521529    -0.72200
O1398       O  0.62512193  0.98420765  0.91562517    -0.84300
Zr1399     Zr  0.61164603  0.86614881  0.91788397     2.26400
Zr1400     Zr  0.59379349  0.91006665  0.96114074     2.06300
Zr1401     Zr  0.66616185  0.94424150  0.90141081     2.10000
Zr1402     Zr  0.69414576  0.90245834  0.94582475     1.78800
O1403       O  0.68215760  0.96509693  0.87182689    -0.93100
O1404       O  0.70206127  0.86466468  0.97174722    -0.40900
O1405       O  0.67125476  0.88948992  0.91706996    -0.77500
O1406       O  0.63678993  0.87334365  0.94660898    -0.96200
O1407       O  0.57057698  0.90357133  0.93269098    -0.89500
O1408       O  0.60701135  0.92077656  0.90167391    -0.92400
C1409       C  0.72022565  0.97258087  0.97246126     1.01400
C1410       C  0.67619957  0.03494758  0.90209604     1.14300
C1411       C  0.59075395  0.98858995  0.98131025     1.05100
O1412       O  0.60883617  0.87615196  0.98747477    -0.94500
O1413       O  0.56128402  0.85094998  0.95968546    -0.90300
O1414       O  0.58149762  0.82070831  0.93561423    -0.83400
C1415       C  0.56232681  0.82264683  0.94970386     1.11700
O1416       O  0.55417283  0.02114317  0.91103914    -0.96500
Zr1417     Zr  0.56676072  0.95820078  0.91668053     1.88900
O1418       O  0.54976747  0.85990277  0.91017986    -0.73100
O1419       O  0.53384010  0.92323615  0.97167035    -0.52400
O1420       O  0.51404031  0.97995728  0.93221739    -0.97100
O1421       O  0.55126675  0.96867850  0.88589647    -0.54300
O1422       O  0.52176106  0.91325506  0.91169415    -0.73700
C1423       C  0.52172343  0.87921565  0.90958476     0.98700
O1424       O  0.63592595  0.80748147  0.91056314    -0.62500
O1425       O  0.72822063  0.92621343  0.90117701    -0.57300
O1426       O  0.62222547  0.85720466  0.88670493    -0.94000
O1427       O  0.65338144  0.90560520  0.87684119    -0.92400
O1428       O  0.75504679  0.91436044  0.93606162    -0.92700
O1429       O  0.72506224  0.84762816  0.93753871    -0.91500
C1430       C  0.63711948  0.87591791  0.87444629     1.17500
H1431       H  0.71348894  0.96936185  0.92867270     0.33500
H1432       H  0.63833781  0.85037316  0.95242675     0.44300
H1433       H  0.59668463  0.91758538  0.89022065     0.37800
H1434       H  0.57039587  0.98058940  0.95012001     0.34300
H1435       H  0.68544525  0.87456412  0.98069112     0.26100
H1436       H  0.52648084  0.90189857  0.97859893     0.32100
H1437       H  0.49637346  0.98402854  0.92284466     0.38000
H1438       H  0.77014307  0.90303110  0.94510216     0.32400
H1439       H  0.72984222  0.90788487  0.89177977     0.31300
H1440       H  0.65935858  0.97018598  0.86589687     0.33000
H1441       H  0.54339657  0.94520886  0.88124560     0.31900
H1442       H  0.70779713  0.83398145  0.93038867     0.35900
H1443       H  0.61536116  0.79309919  0.90657136     0.28700
H1444       H  0.65362349  0.05914973  0.96503073     0.32900
H1445       H  0.57519642  0.03029129  0.90442892     0.35800
H1446       H  0.74123351  0.94720152  0.89632522     0.28400
H1447       H  0.64257600  0.79674332  0.92201121     0.41200
H1448       H  0.58564115  0.87040468  0.99313573     0.31300
H1449       H  0.69178367  0.84105206  0.96867654     0.38900
H1450       H  0.57413922  0.97370473  0.87975509     0.30800
H1451       H  0.51905099  0.92234207  0.96094880     0.30800
H1452       H  0.63036173  0.06866397  0.94863667     0.31100
Zr1453     Zr  0.25966487  0.37112141  0.80139576     2.17500
O1454       O  0.32447196  0.37040874  0.80072422    -0.51300
O1455       O  0.26822752  0.42360970  0.78203167    -0.74500
O1456       O  0.28215886  0.33263209  0.77688416    -0.81300
O1457       O  0.25530805  0.39831838  0.85200926    -0.83000
O1458       O  0.23379315  0.33522035  0.76054591    -0.78600
O1459       O  0.29399795  0.39185744  0.82904159    -0.90300
O1460       O  0.21477883  0.45106333  0.77902392    -0.76200
O1461       O  0.20970149  0.37538203  0.78155776    -0.85700
O1462       O  0.21770223  0.41214454  0.81407939    -0.85400
O1463       O  0.23188470  0.31193393  0.79681884    -0.72200
O1464       O  0.24048351  0.34439939  0.82875835    -0.84300
Zr1465     Zr  0.12605601  0.33219218  0.81682609     2.26400
Zr1466     Zr  0.18117593  0.31760207  0.77704237     2.06300
Zr1467     Zr  0.19705210  0.38446920  0.84097792     2.10000
Zr1468     Zr  0.16936253  0.41695890  0.79396279     1.78800
O1469       O  0.20627591  0.37805964  0.87253355    -0.93100
O1470       O  0.15201318  0.42439837  0.76325417    -0.40900
O1471       O  0.14860025  0.39162725  0.82124550    -0.77500
O1472       O  0.14105412  0.35996325  0.78942552    -0.96200
O1473       O  0.16635915  0.29071885  0.80427776    -0.89500
O1474       O  0.17394510  0.32566827  0.83703313    -0.92400
C1475       C  0.24796659  0.44806972  0.77568104     1.01400
C1476       C  0.28695603  0.39945151  0.84567410     1.14300
C1477       C  0.26411704  0.32156621  0.76352673     1.05100
O1478       O  0.16200125  0.32985461  0.74708610    -0.94500
O1479       O  0.11938175  0.29078300  0.77288088    -0.90300
O1480       O  0.08511915  0.30580296  0.79654021    -0.83400
C1481       C  0.08916769  0.29074133  0.78155631     1.11700
O1482       O  0.27723301  0.26995404  0.82754979    -0.96500
Zr1483     Zr  0.21517416  0.28637517  0.82395271     1.88900
O1484       O  0.11410456  0.27129873  0.82537280    -0.73100
O1485       O  0.19416029  0.25704200  0.76698152    -0.52400
O1486       O  0.23154433  0.23077689  0.80929004    -0.97100
O1487       O  0.22669516  0.27109027  0.85465193    -0.54300
O1488       O  0.16751294  0.24610740  0.83129679    -0.73700
C1489       C  0.13351267  0.24556297  0.83074995     0.98700
O1490       O  0.06783708  0.36041923  0.81928864    -0.62500
O1491       O  0.18602073  0.44776492  0.84639339    -0.57300
O1492       O  0.10536319  0.33844791  0.84614035    -0.94000
O1493       O  0.14528694  0.37449973  0.85997790    -0.92400
O1494       O  0.16404037  0.47581716  0.80757349    -0.92700
O1495       O  0.11018150  0.44261221  0.79170169    -0.91500
C1496       C  0.11651556  0.35598428  0.85934059     1.17500
H1497       H  0.22863197  0.43514505  0.81629813     0.33500
H1498       H  0.12034684  0.36278843  0.78213152     0.44300
H1499       H  0.16680271  0.31476158  0.84807851     0.37800
H1500       H  0.24772972  0.29356234  0.79257938     0.34300
H1501       H  0.15255980  0.45058055  0.76113625     0.26100
H1502       H  0.19404675  0.25858354  0.75393905     0.32100
H1503       H  0.21200920  0.22624735  0.80093109     0.38000
H1504       H  0.18724349  0.48777710  0.80543491     0.32400
H1505       H  0.15980968  0.45000704  0.84619629     0.31300
H1506       H  0.20374692  0.35202828  0.87481873     0.33000
H1507       H  0.20330047  0.26445202  0.85983679     0.31900
H1508       H  0.09580209  0.42970987  0.80072337     0.35900
H1509       H  0.06269885  0.36950824  0.80730421     0.28700
H1510       H  0.33130945  0.38003845  0.78898136     0.32900
H1511       H  0.29081359  0.29073958  0.82284608     0.35800
H1512       H  0.19224097  0.45125891  0.85894329     0.28400
H1513       H  0.05064885  0.34058969  0.82123490     0.41200
H1514       H  0.14771666  0.35197015  0.74808452     0.31300
H1515       H  0.17230211  0.41505660  0.75622490     0.38900
H1516       H  0.23276857  0.29421208  0.86027372     0.30800
H1517       H  0.21924500  0.25270835  0.77004880     0.30800
H1518       H  0.33113297  0.34479384  0.80033764     0.31100
Zr1519     Zr  0.39291234  0.51761588  0.94248998     2.17500
O1520       O  0.38808047  0.45371126  0.94868965    -0.51300
O1521       O  0.34271497  0.51463402  0.96396941    -0.74500
O1522       O  0.43571110  0.50278931  0.96667312    -0.81300
O1523       O  0.36294690  0.51065240  0.89255823    -0.83000
O1524       O  0.43497281  0.55504254  0.98080759    -0.78600
O1525       O  0.37358091  0.47615573  0.91656355    -0.90300
O1526       O  0.31608578  0.56913645  0.96552344    -0.76200
O1527       O  0.38884288  0.57280806  0.95914457    -0.85700
O1528       O  0.35042473  0.55584778  0.92856493    -0.85400
O1529       O  0.45156193  0.54704984  0.94324500    -0.72200
O1530       O  0.41649450  0.53026897  0.91346159    -0.84300
Zr1531     Zr  0.42910363  0.64808491  0.91698723     2.26400
Zr1532     Zr  0.44602082  0.60277813  0.95985883     2.06300
Zr1533     Zr  0.37512517  0.57098723  0.90023591     2.10000
Zr1534     Zr  0.34639834  0.60986167  0.94544666     1.78800
O1535       O  0.35670466  0.55195580  0.87095051    -0.93100
O1536       O  0.34378587  0.64110297  0.97361947    -0.40900
O1537       O  0.36944174  0.62480937  0.91663148    -0.77500
O1538       O  0.40312782  0.63984485  0.94583099    -0.96200
O1539       O  0.46992343  0.61022816  0.93130692    -0.89500
O1540       O  0.43450434  0.59419594  0.90031273    -0.92400
C1541       C  0.31925205  0.53638482  0.97031684     1.01400
C1542       C  0.36434956  0.48011621  0.89992072     1.14300
C1543       C  0.44805217  0.52387425  0.97878649     1.05100
O1544       O  0.43396227  0.63072524  0.98829152    -0.94500
O1545       O  0.47463961  0.66407752  0.95924631    -0.90300
O1546       O  0.45578804  0.69419218  0.93504156    -0.83400
C1547       C  0.47359034  0.69260702  0.94935138     1.11700
O1548       O  0.48793374  0.49348613  0.90957069    -0.96500
Zr1549     Zr  0.47479873  0.55656064  0.91464309     1.88900
O1550       O  0.49242378  0.65507685  0.91147161    -0.73100
O1551       O  0.50704326  0.59341525  0.96919164    -0.52400
O1552       O  0.52776532  0.53510670  0.92948143    -0.97100
O1553       O  0.49004146  0.54982134  0.88341972    -0.54300
O1554       O  0.51999738  0.60151976  0.90921177    -0.73700
C1555       C  0.52026225  0.63584875  0.90913520     0.98700
O1556       O  0.40678048  0.70692847  0.90864966    -0.62500
O1557       O  0.31429854  0.59302532  0.90060409    -0.57300
O1558       O  0.42017327  0.65677063  0.88561521    -0.94000
O1559       O  0.38992524  0.60846426  0.87531048    -0.92400
O1560       O  0.28514590  0.60772079  0.93530392    -0.92700
O1561       O  0.31707308  0.66750093  0.94225183    -0.91500
C1562       C  0.40645960  0.63814906  0.87313079     1.17500
H1563       H  0.32773055  0.54385435  0.92752768     0.33500
H1564       H  0.40091296  0.66250665  0.95186687     0.44300
H1565       H  0.44559730  0.59741481  0.88890497     0.37800
H1566       H  0.47072260  0.53303476  0.94788104     0.34300
H1567       H  0.31824931  0.64113154  0.97694700     0.26100
H1568       H  0.50581412  0.59323015  0.98224589     0.32100
H1569       H  0.54566741  0.53202926  0.91993180     0.38000
H1570       H  0.27839779  0.58207202  0.93549663     0.32400
H1571       H  0.31237276  0.60746574  0.88968059     0.31300
H1572       H  0.33040009  0.55305114  0.87101272     0.33000
H1573       H  0.47084019  0.53470023  0.87853111     0.31900
H1574       H  0.33382955  0.68208071  0.93503305     0.35900
H1575       H  0.39663803  0.71712853  0.91964681     0.28700
H1576       H  0.38634356  0.45185015  0.96170832     0.32900
H1577       H  0.46914764  0.48493174  0.90153647     0.35800
H1578       H  0.29933746  0.57161172  0.89847740     0.28400
H1579       H  0.42812631  0.72172510  0.90605590     0.41200
H1580       H  0.41829715  0.65118713  0.98557104     0.31300
H1581       H  0.35478106  0.62439880  0.98210422     0.38900
H1582       H  0.51142379  0.53446272  0.88312382     0.30800
H1583       H  0.51284196  0.56851618  0.96583104     0.30800
H1584       H  0.41177702  0.44392014  0.94565062     0.31100
Zr1585     Zr  0.15242909  0.49366403  0.44498080     2.17500
O1586       O  0.16074970  0.55710092  0.45137434    -0.51300
O1587       O  0.20357447  0.48594522  0.46511773    -0.74500
O1588       O  0.11451504  0.51032825  0.47121947    -0.81300
O1589       O  0.15125194  0.51403707  0.39614578    -0.83000
O1590       O  0.10773284  0.45698720  0.48454611    -0.78600
O1591       O  0.18227722  0.53010592  0.41987756    -0.90300
O1592       O  0.22187172  0.42803645  0.46356683    -0.76200
O1593       O  0.15488788  0.43547428  0.45869702    -0.85700
O1594       O  0.18624262  0.45586464  0.42560651    -0.85400
O1595       O  0.09204786  0.46928821  0.44785750    -0.72200
O1596       O  0.11982136  0.48982035  0.41776407    -0.84300
Zr1597     Zr  0.09757054  0.37274141  0.41676292     2.26400
Zr1598     Zr  0.09551574  0.41140642  0.46243264     2.06300
Zr1599     Zr  0.15269236  0.45012344  0.39883043     2.10000
Zr1600     Zr  0.18984925  0.39900277  0.43982247     1.78800
O1601       O  0.16217710  0.47591885  0.36954022    -0.93100
O1602       O  0.20110748  0.35405044  0.46243514    -0.40900
O1603       O  0.15768328  0.39305031  0.41268396    -0.77500
O1604       O  0.13096383  0.37414057  0.44367020    -0.96200
O1605       O  0.06396598  0.41023688  0.43578493    -0.89500
O1606       O  0.09313284  0.42925598  0.40225950    -0.92400
C1607       C  0.22313080  0.45957250  0.47023233     1.01400
C1608       C  0.17532254  0.53310872  0.40305030     1.14300
C1609       C  0.09932361  0.49004180  0.48309711     1.05100
O1610       O  0.11467365  0.37881958  0.48846688    -0.94500
O1611       O  0.06398555  0.35172654  0.46258567    -0.90300
O1612       O  0.07005928  0.32697236  0.43532096    -0.83400
C1613       C  0.05888063  0.32592314  0.45136540     1.11700
O1614       O  0.04660833  0.53020333  0.41839569    -0.96500
Zr1615     Zr  0.06071465  0.46682133  0.42135811     1.88900
O1616       O  0.03512066  0.37585963  0.40910138    -0.73100
O1617       O  0.03638091  0.42215100  0.47471852    -0.52400
O1618       O  0.01573317  0.49904922  0.43831562    -0.97100
O1619       O  0.03743524  0.47465233  0.39155870    -0.54300
O1620       O  0.01373344  0.42335636  0.42395142    -0.73700
C1621       C  0.00923653  0.39505855  0.41484032     0.98700
O1622       O  0.11385270  0.31293436  0.40674925    -0.62500
O1623       O  0.21437283  0.43393904  0.39261895    -0.57300
O1624       O  0.10270467  0.36568795  0.38505236    -0.94000
O1625       O  0.13200479  0.41448955  0.37430223    -0.92400
O1626       O  0.24980370  0.41153730  0.42875960    -0.92700
O1627       O  0.21525763  0.34614258  0.42573033    -0.91500
C1628       C  0.11507199  0.38495487  0.37229751     1.17500
H1629       H  0.20954016  0.46602633  0.42348913     0.33500
H1630       H  0.13250579  0.35032243  0.44858761     0.44300
H1631       H  0.08004687  0.42764432  0.39144545     0.37800
H1632       H  0.07490059  0.48392538  0.45386363     0.34300
H1633       H  0.18502281  0.36058244  0.47234321     0.26100
H1634       H  0.03907878  0.41949005  0.48762763     0.32100
H1635       H  0.00904949  0.48282539  0.44815103     0.38000
H1636       H  0.26576912  0.40103780  0.43767315     0.32400
H1637       H  0.21558268  0.40786010  0.39486782     0.31300
H1638       H  0.18686437  0.48516283  0.36920809     0.33000
H1639       H  0.02394392  0.49733262  0.39171759     0.31900
H1640       H  0.22268817  0.35399442  0.41374977     0.35900
H1641       H  0.09145383  0.29891162  0.40681527     0.28700
H1642       H  0.17116046  0.55771410  0.46331475     0.32900
H1643       H  0.06876657  0.54151042  0.41388194     0.35800
H1644       H  0.21753461  0.43597399  0.37968231     0.28400
H1645       H  0.12797462  0.30269425  0.41646849     0.41200
H1646       H  0.09246226  0.37380913  0.49518534     0.31300
H1647       H  0.19119478  0.33134759  0.45784105     0.38900
H1648       H  0.01897009  0.45586504  0.39033439     0.30800
H1649       H  0.03196043  0.44797127  0.47287644     0.30800
H1650       H  0.13650062  0.56687549  0.45292290     0.31100
Zr1651     Zr  0.27856930  0.63718676  0.30082545     2.17500
O1652       O  0.21381440  0.63528661  0.30256943    -0.51300
O1653       O  0.27007611  0.58672843  0.28034621    -0.74500
O1654       O  0.25263008  0.67862234  0.27864134    -0.81300
O1655       O  0.28967757  0.59942173  0.34877489    -0.83000
O1656       O  0.30062109  0.67782349  0.26187783    -0.78600
O1657       O  0.24761983  0.60967892  0.32816977    -0.90300
O1658       O  0.32501313  0.56695654  0.27233657    -0.76200
O1659       O  0.32714164  0.63895838  0.27944623    -0.85700
O1660       O  0.32328975  0.59617999  0.31042299    -0.85400
O1661       O  0.30344525  0.69827904  0.29845536    -0.72200
O1662       O  0.29926226  0.65935075  0.32866802    -0.84300
Zr1663     Zr  0.41199388  0.67914825  0.31427032     2.26400
Zr1664     Zr  0.35260259  0.69878677  0.27703835     2.06300
Zr1665     Zr  0.34555503  0.61952390  0.33761717     2.10000
Zr1666     Zr  0.37013382  0.59718785  0.28885070     1.78800
O1667       O  0.33274477  0.61535071  0.36913025    -0.93100
O1668       O  0.39106483  0.59575181  0.25830234    -0.40900
O1669       O  0.39266622  0.61819452  0.31639143    -0.77500
O1670       O  0.39558011  0.65618470  0.28618665    -0.96200
O1671       O  0.36889350  0.72097594  0.30492824    -0.89500
O1672       O  0.36569392  0.67981663  0.33604021    -0.92400
C1673       C  0.29115938  0.56661114  0.27128873     1.01400
C1674       C  0.25761011  0.59787343  0.34364737     1.14300
C1675       C  0.27077155  0.69183946  0.26563315     1.05100
O1676       O  0.36964183  0.69677289  0.24598837    -0.94500
O1677       O  0.41209883  0.72936124  0.27196340    -0.90300
O1678       O  0.44847398  0.71320463  0.29428133    -0.83400
C1679       C  0.44257459  0.73002183  0.27994048     1.11700
O1680       O  0.25985980  0.73032589  0.33461540    -0.96500
Zr1681     Zr  0.32153162  0.71921641  0.32614542     1.88900
O1682       O  0.42262706  0.73678830  0.32691881    -0.73100
O1683       O  0.33212265  0.75934568  0.27101111    -0.52400
O1684       O  0.29959312  0.77555378  0.31430372    -0.97100
O1685       O  0.31493295  0.73016092  0.35776240    -0.54300
O1686       O  0.36830626  0.75984576  0.33351584    -0.73700
C1687       C  0.40228703  0.76114805  0.33303749     0.98700
O1688       O  0.47338797  0.65921256  0.31123681    -0.62500
O1689       O  0.36509753  0.55743073  0.33861351    -0.57300
O1690       O  0.43532890  0.66361030  0.34222835    -0.94000
O1691       O  0.39479629  0.62963062  0.35728006    -0.92400
O1692       O  0.37292547  0.53498341  0.29860162    -0.92700
O1693       O  0.42900198  0.57054461  0.28687529    -0.91500
C1694       C  0.42439264  0.64646473  0.35579021     1.17500
H1695       H  0.31343986  0.57243913  0.31203072     0.33500
H1696       H  0.41574516  0.65584564  0.27817504     0.44300
H1697       H  0.37354638  0.68887322  0.34725900     0.37800
H1698       H  0.28644194  0.71641982  0.29547050     0.34300
H1699       H  0.38636686  0.57097703  0.25426000     0.26100
H1700       H  0.35234517  0.77115833  0.26483154     0.32100
H1701       H  0.30275242  0.79303799  0.32397459     0.38000
H1702       H  0.34849812  0.52532815  0.29745296     0.32400
H1703       H  0.38914731  0.55749738  0.33316690     0.31300
H1704       H  0.32580076  0.63993616  0.37261768     0.33000
H1705       H  0.30494336  0.75460294  0.35862349     0.31900
H1706       H  0.44392547  0.58540069  0.29469968     0.35900
H1707       H  0.47287623  0.63371063  0.31479997     0.28700
H1708       H  0.20552695  0.63436657  0.29022604     0.32900
H1709       H  0.24634415  0.71004519  0.32955417     0.35800
H1710       H  0.36940310  0.55284570  0.35128199     0.28400
H1711       H  0.48682203  0.67159497  0.32061778     0.41200
H1712       H  0.38959938  0.67959893  0.24545845     0.31300
H1713       H  0.37384002  0.61061455  0.25179132     0.38900
H1714       H  0.33938147  0.73279119  0.36227943     0.30800
H1715       H  0.33103916  0.77112972  0.28268305     0.30800
H1716       H  0.20680891  0.65928060  0.30689645     0.31100
Zr1717     Zr  0.89364215  0.01824895  0.43938948     2.17500
O1718       O  0.90129031  0.95364797  0.44222647    -0.51300
O1719       O  0.84382887  0.00724619  0.46064161    -0.74500
O1720       O  0.93635128  0.00249359  0.46301528    -0.81300
O1721       O  0.86276009  0.01551794  0.38928473    -0.83000
O1722       O  0.93209298  0.05253886  0.47883242    -0.78600
O1723       O  0.87175537  0.97964040  0.41300306    -0.90300
O1724       O  0.81495114  0.05984524  0.46537342    -0.76200
O1725       O  0.88726981  0.06927642  0.45919891    -0.85700
O1726       O  0.84760135  0.05458059  0.42697547    -0.85400
O1727       O  0.94971155  0.05306169  0.44080150    -0.72200
O1728       O  0.91858568  0.03548302  0.41098720    -0.84300
Zr1729     Zr  0.92185075  0.15460164  0.42130770     2.26400
Zr1730     Zr  0.94211814  0.10484008  0.46033258     2.06300
Zr1731     Zr  0.87441413  0.07416822  0.39968644     2.10000
Zr1732     Zr  0.84248196  0.10466070  0.44657805     1.78800
O1733       O  0.89591940  0.05706813  0.37054494    -0.93100
O1734       O  0.82761261  0.12985673  0.47539765    -0.40900
O1735       O  0.89070085  0.10070443  0.42653676    -0.77500
O1736       O  0.89519944  0.14164536  0.44935978    -0.96200
O1737       O  0.96334774  0.11756857  0.43254144    -0.89500
O1738       O  0.92830112  0.10863698  0.39967942    -0.92400
C1739       C  0.81980298  0.02646487  0.46840744     1.01400
C1740       C  0.86293122  0.98465706  0.39637911     1.14300
C1741       C  0.94694935  0.02249609  0.47584970     1.05100
O1742       O  0.92148079  0.13342000  0.48756520    -0.94500
O1743       O  0.97364173  0.16502852  0.46158119    -0.90300
O1744       O  0.95312763  0.19799228  0.43879789    -0.83400
C1745       C  0.97229331  0.19474148  0.45253832     1.11700
O1746       O  0.99324151  0.01441486  0.40067522    -0.96500
Zr1747     Zr  0.97225948  0.07139321  0.41275597     1.88900
O1748       O  0.98089998  0.17205222  0.41185759    -0.73100
O1749       O  0.00080513  0.09719902  0.47300993    -0.52400
O1750       O  0.02702901  0.04957503  0.42576628    -0.97100
O1751       O  0.98893977  0.07336430  0.38143962    -0.54300
O1752       O  0.01288774  0.12094611  0.41059142    -0.73700
C1753       C  0.01026707  0.15507542  0.41018296     0.98700
O1754       O  0.88163865  0.20601587  0.42100816    -0.62500
O1755       O  0.81057234  0.08405509  0.39732585    -0.57300
O1756       O  0.89344051  0.17132051  0.39450350    -0.94000
O1757       O  0.86211140  0.12577915  0.38219148    -0.92400
O1758       O  0.78595283  0.10366864  0.43126560    -0.92700
O1759       O  0.82015737  0.16084395  0.43482351    -0.91500
C1760       C  0.87341490  0.15785045  0.38274306     1.17500
H1761       H  0.82565608  0.04142473  0.42546996     0.33500
H1762       H  0.89145650  0.16288777  0.45638063     0.44300
H1763       H  0.93523721  0.11758529  0.38818155     0.37800
H1764       H  0.96926560  0.03897102  0.44494339     0.34300
H1765       H  0.84025820  0.11467174  0.48399743     0.26100
H1766       H  0.99660985  0.09402126  0.48582972     0.32100
H1767       H  0.02779291  0.06088480  0.43755301     0.38000
H1768       H  0.77338641  0.08225244  0.43595417     0.32400
H1769       H  0.80685045  0.11021320  0.39833255     0.31300
H1770       H  0.87749198  0.06557926  0.36232553     0.33000
H1771       H  0.99264300  0.09897295  0.37849739     0.31900
H1772       H  0.80838673  0.17264985  0.44500390     0.35900
H1773       H  0.89623514  0.22627145  0.41645229     0.28700
H1774       H  0.89606360  0.94805377  0.45477331     0.32900
H1775       H  0.99059351  0.99686506  0.41041811     0.35800
H1776       H  0.80498935  0.07830240  0.38490890     0.28400
H1777       H  0.87747667  0.21197283  0.43358319     0.41200
H1778       H  0.93090931  0.11839590  0.49720406     0.31300
H1779       H  0.84021264  0.15317090  0.47579151     0.38900
H1780       H  0.96733234  0.06627269  0.37495378     0.30800
H1781       H  0.00930855  0.07374081  0.46870187     0.30800
H1782       H  0.92713513  0.94949494  0.44074238     0.31100
Zr1783     Zr  0.74937245  0.87937732  0.29939203     2.17500
O1784       O  0.81408750  0.87621230  0.29777936    -0.51300
O1785       O  0.75983318  0.93051183  0.27890350    -0.74500
O1786       O  0.76992395  0.83720515  0.27628945    -0.81300
O1787       O  0.74807631  0.91339965  0.34843022    -0.83000
O1788       O  0.72158059  0.84084768  0.26013598    -0.78600
O1789       O  0.78624779  0.89934437  0.32616928    -0.90300
O1790       O  0.70620787  0.95498861  0.27256808    -0.76200
O1791       O  0.69943368  0.88371790  0.27954396    -0.85700
O1792       O  0.70991006  0.92397513  0.31092675    -0.85400
O1793       O  0.71845482  0.82106448  0.29707424    -0.72200
O1794       O  0.72906825  0.85617802  0.32748565    -0.84300
Zr1795     Zr  0.61360873  0.84945536  0.31636406     2.26400
Zr1796     Zr  0.66847171  0.82682901  0.27698925     2.06300
Zr1797     Zr  0.68864093  0.90057090  0.33863790     2.10000
Zr1798     Zr  0.66125234  0.92853746  0.29091769     1.78800
O1799       O  0.69950876  0.90167976  0.37021549    -0.93100
O1800       O  0.63856193  0.93487599  0.26102753    -0.40900
O1801       O  0.63986832  0.90781006  0.31898648    -0.77500
O1802       O  0.63042304  0.87251185  0.28814260    -0.96200
O1803       O  0.65109256  0.80411215  0.30490378    -0.89500
O1804       O  0.66115004  0.84279026  0.33670366    -0.92400
C1805       C  0.73980023  0.95272886  0.27056030     1.01400
C1806       C  0.77973491  0.91023825  0.34234780     1.14300
C1807       C  0.75088360  0.82546639  0.26351156     1.05100
O1808       O  0.64873739  0.83408981  0.24672773    -0.94500
O1809       O  0.60582680  0.80356244  0.27288067    -0.90300
O1810       O  0.57243908  0.82200401  0.29625829    -0.83400
C1811       C  0.57568392  0.80586197  0.28143483     1.11700
O1812       O  0.75829973  0.77504806  0.32997178    -0.96500
Zr1813     Zr  0.69933720  0.79924160  0.32477834     1.88900
O1814       O  0.59683546  0.79235748  0.32841758    -0.73100
O1815       O  0.68245951  0.76537289  0.26881062    -0.52400
O1816       O  0.71046201  0.74081583  0.31157534    -0.97100
O1817       O  0.70726980  0.78854056  0.35626973    -0.54300
O1818       O  0.64862098  0.76255959  0.33231021    -0.73700
C1819       C  0.61467929  0.76497630  0.33303992     0.98700
O1820       O  0.55397138  0.87467333  0.31576157    -0.62500
O1821       O  0.67629399  0.96433943  0.34178397    -0.57300
O1822       O  0.59615869  0.86706404  0.34536192    -0.94000
O1823       O  0.64060310  0.89537355  0.35998180    -0.92400
O1824       O  0.66788262  0.99091221  0.29974014    -0.92700
O1825       O  0.60448282  0.95947143  0.29318301    -0.91500
C1826       C  0.60920524  0.88243623  0.35887115     1.17500
H1827       H  0.72215982  0.94659179  0.31228417     0.33500
H1828       H  0.60974036  0.87521442  0.28083837     0.44300
H1829       H  0.65316277  0.83378695  0.34801729     0.37800
H1830       H  0.73338623  0.80153446  0.29336467     0.34300
H1831       H  0.65452415  0.92000262  0.25360849     0.26100
H1832       H  0.66711644  0.75047560  0.27661051     0.32100
H1833       H  0.70657368  0.72341415  0.32130033     0.38000
H1834       H  0.66363302  0.00491372  0.28885536     0.32400
H1835       H  0.69816371  0.97683144  0.33772489     0.31300
H1836       H  0.69907242  0.92733925  0.37352391     0.33000
H1837       H  0.68422187  0.77893082  0.36065890     0.31900
H1838       H  0.59997519  0.96220187  0.30601379     0.35900
H1839       H  0.54138649  0.86547716  0.32640490     0.28700
H1840       H  0.82050445  0.88251859  0.28544858     0.32900
H1841       H  0.77459928  0.79566075  0.32815633     0.35800
H1842       H  0.65829434  0.96987140  0.33277018     0.28400
H1843       H  0.55739606  0.90057616  0.31791711     0.41200
H1844       H  0.63631172  0.85739259  0.24663510     0.31300
H1845       H  0.61542999  0.92216253  0.26089184     0.38900
H1846       H  0.70904535  0.81268801  0.36158324     0.30800
H1847       H  0.67215948  0.76241582  0.25692434     0.30800
H1848       H  0.81992031  0.85047749  0.29893122     0.31100
Zr1849     Zr  0.39243041  0.99593903  0.44713201     2.17500
O1850       O  0.39666231  0.06076819  0.45024729    -0.51300
O1851       O  0.34246398  0.00612153  0.46719467    -0.74500
O1852       O  0.36502246  0.03092635  0.42129779    -0.81300
O1853       O  0.43646071  0.96860104  0.48729722    -0.83000
O1854       O  0.35207532  0.99076159  0.39978848    -0.78600
O1855       O  0.44257388  0.01197741  0.46737377    -0.90300
O1856       O  0.30997690  0.95450854  0.46856967    -0.76200
O1857       O  0.35097077  0.95562933  0.43398181    -0.85700
O1858       O  0.38418490  0.94508764  0.46686993    -0.85400
O1859       O  0.41884614  0.97831836  0.41959245    -0.72200
O1860       O  0.44809579  0.96519716  0.45144247    -0.84300
Zr1861     Zr  0.42542656  0.85851835  0.43087513     2.26400
Zr1862     Zr  0.37829551  0.93501765  0.40727713     2.06300
Zr1863     Zr  0.43964157  0.91362147  0.47084827     2.10000
Zr1864     Zr  0.34189596  0.90666383  0.45371373     1.78800
O1865       O  0.49604241  0.92078071  0.48597130    -0.93100
O1866       O  0.28482348  0.90825568  0.43881526    -0.40900
O1867       O  0.39676127  0.87467386  0.45806813    -0.77500
O1868       O  0.36787345  0.88529088  0.42669563    -0.96200
O1869       O  0.43366697  0.90875021  0.41177483    -0.89500
O1870       O  0.46798728  0.89822272  0.44375802    -0.92400
C1871       C  0.31586803  0.98732561  0.47266480     1.01400
C1872       C  0.45262817  0.99652730  0.48182401     1.14300
C1873       C  0.35133365  0.02241656  0.40600732     1.05100
O1874       O  0.32064254  0.91384695  0.39720445    -0.94500
O1875       O  0.39945551  0.88968339  0.38689342    -0.90300
O1876       O  0.40958931  0.83863429  0.40204533    -0.83400
C1877       C  0.40724763  0.85631789  0.38768334     1.11700
O1878       O  0.48516902  0.00571484  0.40948648    -0.96500
Zr1879     Zr  0.47447235  0.94879841  0.42450157     1.88900
O1880       O  0.48324642  0.84987564  0.41677709    -0.73100
O1881       O  0.39532940  0.95665402  0.37792306    -0.52400
O1882       O  0.53021993  0.95582305  0.40808616    -0.97100
O1883       O  0.52478119  0.95067807  0.44457165    -0.54300
O1884       O  0.47158387  0.90060343  0.40398916    -0.73700
C1885       C  0.49162106  0.87363769  0.40543478     0.98700
O1886       O  0.40123004  0.79789789  0.42930472    -0.62500
O1887       O  0.41270248  0.89032464  0.49794153    -0.57300
O1888       O  0.45434725  0.81947174  0.45151640    -0.94000
O1889       O  0.46980656  0.85445361  0.47468373    -0.92400
O1890       O  0.33148572  0.88545233  0.48376242    -0.92700
O1891       O  0.30971927  0.84987602  0.45446640    -0.91500
C1892       C  0.47033693  0.82440004  0.46611331     1.17500
H1893       H  0.37564949  0.95235047  0.47836614     0.33500
H1894       H  0.35206322  0.86815396  0.42129879     0.44300
H1895       H  0.49061912  0.88676427  0.44565443     0.37800
H1896       H  0.42152312  0.99850762  0.41172199     0.34300
H1897       H  0.26681674  0.90657822  0.44842266     0.26100
H1898       H  0.37301642  0.96277834  0.37182705     0.32100
H1899       H  0.54543728  0.93582328  0.41199837     0.38000
H1900       H  0.30581204  0.88934313  0.48601890     0.32400
H1901       H  0.43026570  0.89564984  0.50721899     0.31300
H1902       H  0.49261990  0.90866823  0.49750368     0.33000
H1903       H  0.51433721  0.95255441  0.45656403     0.31900
H1904       H  0.32854120  0.83143523  0.45473629     0.35900
H1905       H  0.39218760  0.79255861  0.44134980     0.28700
H1906       H  0.41981775  0.06721831  0.44472664     0.32900
H1907       H  0.48802671  0.02332655  0.41910643     0.35800
H1908       H  0.39269159  0.90666657  0.50055806     0.28400
H1909       H  0.42202021  0.78200988  0.42766210     0.41200
H1910       H  0.32550982  0.89028636  0.39172155     0.31300
H1911       H  0.28267942  0.93311245  0.43438484     0.38900
H1912       H  0.53597158  0.97439209  0.44248575     0.30800
H1913       H  0.40762357  0.97983694  0.37978764     0.30800
H1914       H  0.39987289  0.06516469  0.46301393     0.31100
Zr1915     Zr  0.24711079  0.13882320  0.30814755     2.17500
O1916       O  0.31082825  0.13814841  0.30202246    -0.51300
O1917       O  0.24800071  0.08545425  0.28903378    -0.74500
O1918       O  0.28089683  0.11011570  0.33416513    -0.81300
O1919       O  0.21955867  0.17899265  0.26632373    -0.83000
O1920       O  0.24699150  0.11415918  0.35911350    -0.78600
O1921       O  0.26467700  0.18395716  0.28502468    -0.90300
O1922       O  0.19347018  0.05904784  0.29140397    -0.76200
O1923       O  0.20717659  0.10721334  0.32724757    -0.85700
O1924       O  0.19303445  0.12976514  0.29137974    -0.85400
O1925       O  0.23716131  0.17759416  0.33322436    -0.72200
O1926       O  0.21865316  0.19470702  0.30115776    -0.84300
Zr1927     Zr  0.11981393  0.19123858  0.32738138     2.26400
Zr1928     Zr  0.19496078  0.14649523  0.35166444     2.06300
Zr1929     Zr  0.16578044  0.18552976  0.28386259     2.10000
Zr1930     Zr  0.15525088  0.09586778  0.31039403     1.78800
O1931       O  0.17409811  0.23798171  0.26511445    -0.93100
O1932       O  0.16368695  0.04217494  0.32813309    -0.40900
O1933       O  0.12725453  0.15169301  0.30272160    -0.77500
O1934       O  0.14210043  0.13332297  0.33554298    -0.96200
O1935       O  0.17172817  0.20325512  0.34392012    -0.89500
O1936       O  0.15908620  0.22305649  0.30824887    -0.92400
C1937       C  0.22512436  0.06119120  0.28478887     1.01400
C1938       C  0.24889634  0.19370616  0.27064357     1.14300
C1939       C  0.27496144  0.10389939  0.35102759     1.05100
O1940       O  0.17390103  0.09542547  0.36893695    -0.94500
O1941       O  0.15447226  0.17023183  0.37368194    -0.90300
O1942       O  0.11018790  0.19720418  0.35872483    -0.83400
C1943       C  0.12543904  0.18797009  0.37308338     1.11700
O1944       O  0.27292128  0.25232765  0.32948479    -0.96500
Zr1945     Zr  0.21130545  0.23428988  0.32503146     1.88900
O1946       O  0.11297535  0.25564324  0.32935168    -0.73100
O1947       O  0.22719771  0.17409919  0.37597361    -0.52400
O1948       O  0.21649762  0.26124996  0.35413379    -0.97100
O1949       O  0.23241129  0.27673252  0.30282442    -0.54300
O1950       O  0.16759701  0.28129832  0.32689078    -0.73700
C1951       C  0.13358285  0.28306819  0.32813552     0.98700
O1952       O  0.06008518  0.17037497  0.33504913    -0.62500
O1953       O  0.13840986  0.15176816  0.26008458    -0.57300
O1954       O  0.07725760  0.21369047  0.30655571    -0.94000
O1955       O  0.10765454  0.21806059  0.28051841    -0.92400
O1956       O  0.11671530  0.07913242  0.28610262    -0.92700
O1957       O  0.10011148  0.06605682  0.31925845    -0.91500
C1958       C  0.07988563  0.22392431  0.29045426     1.17500
H1959       H  0.19651468  0.11920627  0.27990636     0.33500
H1960       H  0.12508875  0.12136129  0.34320024     0.44300
H1961       H  0.14960882  0.24441448  0.30295842     0.37800
H1962       H  0.25916631  0.18149891  0.33940165     0.34300
H1963       H  0.18879587  0.03535021  0.32607750     0.26100
H1964       H  0.22883454  0.15535965  0.38519700     0.32100
H1965       H  0.22522458  0.24173365  0.36177966     0.38000
H1966       H  0.13187727  0.08139228  0.27539271     0.32400
H1967       H  0.15863310  0.14299977  0.25284785     0.31300
H1968       H  0.16307454  0.23137240  0.25376883     0.33000
H1969       H  0.23397654  0.29994537  0.30905343     0.31900
H1970       H  0.08147266  0.08442859  0.31774199     0.35900
H1971       H  0.05226035  0.15664189  0.32460773     0.28700
H1972       H  0.31774824  0.11266870  0.30301426     0.32900
H1973       H  0.27195584  0.27757861  0.33343887     0.35800
H1974       H  0.12704655  0.17015670  0.25261730     0.28400
H1975       H  0.06351366  0.15190005  0.34425897     0.41200
H1976       H  0.18512554  0.09840524  0.38060665     0.31300
H1977       H  0.16289052  0.05071630  0.34049108     0.38900
H1978       H  0.21223493  0.27950698  0.29466155     0.30800
H1979       H  0.25193684  0.17774684  0.37171214     0.30800
H1980       H  0.32174071  0.14994769  0.31234377     0.31100
Zr1981     Zr  0.64949185  0.53388685  0.44684938     2.17500
O1982       O  0.65109745  0.46963688  0.45251336    -0.51300
O1983       O  0.70087151  0.52900815  0.46704773    -0.74500
O1984       O  0.67433256  0.49990453  0.41953556    -0.81300
O1985       O  0.59915538  0.55725872  0.48762581    -0.83000
O1986       O  0.67891319  0.53989170  0.39715224    -0.78600
O1987       O  0.59945954  0.51425569  0.46707513    -0.90300
O1988       O  0.72899833  0.58312436  0.46749035    -0.76200
O1989       O  0.68594147  0.57593803  0.43113796    -0.85700
O1990       O  0.65599177  0.58578374  0.46593016    -0.85400
O1991       O  0.61708206  0.54993009  0.42065705    -0.72200
O1992       O  0.59361487  0.56270937  0.45311692    -0.84300
Zr1993     Zr  0.60478555  0.66645333  0.43022652     2.26400
Zr1994     Zr  0.65284884  0.59461593  0.40583126     2.06300
Zr1995     Zr  0.59959444  0.61414628  0.47196997     2.10000
Zr1996     Zr  0.69445373  0.62564756  0.45036669     1.78800
O1997       O  0.54797449  0.60724069  0.49137943    -0.93100
O1998       O  0.75031202  0.62115193  0.43386279    -0.40900
O1999       O  0.63805354  0.65411513  0.45635946    -0.77500
O2000       O  0.66365988  0.64485821  0.42433014    -0.96200
O2001       O  0.59512793  0.61558565  0.41215705    -0.89500
O2002       O  0.56694040  0.62621008  0.44613414    -0.92400
C2003       C  0.72548333  0.55043353  0.47252569     1.01400
C2004       C  0.58681945  0.52771887  0.48166977     1.14300
C2005       C  0.68349454  0.50868957  0.40329528     1.05100
O2006       O  0.70919438  0.62045125  0.39598444    -0.94500
O2007       O  0.62719115  0.63787156  0.38562390    -0.90300
O2008       O  0.61773127  0.68836915  0.40106316    -0.83400
C2009       C  0.61765720  0.67074320  0.38664022     1.11700
O2010       O  0.54073750  0.51183040  0.42867350    -0.96500
Zr2011     Zr  0.55964606  0.57422788  0.42829127     1.88900
O2012       O  0.55210930  0.66724640  0.41211627    -0.73100
O2013       O  0.64052749  0.57355014  0.37596886    -0.52400
O2014       O  0.53621505  0.55329498  0.40033040    -0.97100
O2015       O  0.51087042  0.56282025  0.44906705    -0.54300
O2016       O  0.51822907  0.61915968  0.41961797    -0.73700
C2017       C  0.52431138  0.64763076  0.41081678     0.98700
O2018       O  0.62348911  0.72902822  0.43188375    -0.62500
O2019       O  0.63299336  0.63711651  0.49687017    -0.57300
O2020       O  0.56936387  0.70268948  0.44963059    -0.94000
O2021       O  0.56529794  0.67172679  0.47545700    -0.92400
O2022       O  0.70734790  0.65571761  0.47808837    -0.92700
O2023       O  0.72485458  0.68304321  0.44702126    -0.91500
C2024       C  0.55829820  0.69925341  0.46555265     1.17500
H2025       H  0.66501978  0.57975849  0.47739815     0.33500
H2026       H  0.67738775  0.66300231  0.41816931     0.44300
H2027       H  0.54404573  0.63641841  0.44896140     0.37800
H2028       H  0.61373257  0.52942036  0.41309684     0.34300
H2029       H  0.76896660  0.62681093  0.44255958     0.26100
H2030       H  0.66356934  0.56840428  0.37005700     0.32100
H2031       H  0.51014210  0.55642611  0.40141295     0.38000
H2032       H  0.70387543  0.63716629  0.48730773     0.32400
H2033       H  0.62938355  0.66335838  0.49648599     0.31300
H2034       H  0.52723061  0.61082808  0.48365769     0.33000
H2035       H  0.49669421  0.58510410  0.44919440     0.31900
H2036       H  0.70602353  0.70114976  0.44885943     0.35900
H2037       H  0.64589734  0.73050531  0.42492251     0.28700
H2038       H  0.67619071  0.46270346  0.45047980     0.32900
H2039       H  0.56185458  0.49816741  0.42470737     0.35800
H2040       H  0.61931161  0.62900867  0.50739125     0.28400
H2041       H  0.60602096  0.74263143  0.42490667     0.41200
H2042       H  0.70687578  0.62263938  0.38303068     0.31300
H2043       H  0.75339294  0.59527634  0.43147547     0.38900
H2044       H  0.52213024  0.56212354  0.46080091     0.30800
H2045       H  0.62818870  0.55014957  0.37715849     0.30800
H2046       H  0.63795808  0.45866514  0.44262774     0.31100
Zr2047     Zr  0.78031255  0.39227512  0.30201679     2.17500
O2048       O  0.71707153  0.39260072  0.29547331    -0.51300
O2049       O  0.78107123  0.44032389  0.27933048    -0.74500
O2050       O  0.74619976  0.42471597  0.32746718    -0.81300
O2051       O  0.81196312  0.34112123  0.26471336    -0.83000
O2052       O  0.76947507  0.40641881  0.35328362    -0.78600
O2053       O  0.76411996  0.34098897  0.28222179    -0.90300
O2054       O  0.83565812  0.46715388  0.27966688    -0.76200
O2055       O  0.81906012  0.43174822  0.31752192    -0.85700
O2056       O  0.83602992  0.39507369  0.28550335    -0.85400
O2057       O  0.78882902  0.36299968  0.32977562    -0.72200
O2058       O  0.80802530  0.33399347  0.30005117    -0.84300
Zr2059     Zr  0.91030138  0.35011201  0.32625693     2.26400
Zr2060     Zr  0.83038254  0.40228077  0.34492881     2.06300
Zr2061     Zr  0.86359432  0.33719588  0.28333596     2.10000
Zr2062     Zr  0.87303133  0.43597009  0.30065321     1.78800
O2063       O  0.85632814  0.27940058  0.26884932    -0.93100
O2064       O  0.86679764  0.49645601  0.31234420    -0.40900
O2065       O  0.90151047  0.37843798  0.29818119    -0.77500
O2066       O  0.88524093  0.40917043  0.32882751    -0.96200
O2067       O  0.85540302  0.34465433  0.34279070    -0.89500
O2068       O  0.87188758  0.30882809  0.31107197    -0.92400
C2069       C  0.80418632  0.46338700  0.27353375     1.01400
C2070       C  0.78193104  0.32761440  0.26904213     1.14300
C2071       C  0.74642273  0.42385360  0.34484347     1.05100
O2072       O  0.84480449  0.46587290  0.34616453    -0.94500
O2073       O  0.86660634  0.38024050  0.36870958    -0.90300
O2074       O  0.91977989  0.36331447  0.35690871    -0.83400
C2075       C  0.89928319  0.37133508  0.36990891     1.11700
O2076       O  0.76299132  0.29749327  0.34506967    -0.96500
Zr2077     Zr  0.81692110  0.30579448  0.32728469     1.88900
O2078       O  0.91883692  0.29230620  0.33980020    -0.73100
O2079       O  0.81907377  0.42233316  0.37520136    -0.52400
O2080       O  0.79786688  0.24845201  0.33991178    -0.97100
O2081       O  0.81574599  0.25704811  0.30576697    -0.54300
O2082       O  0.86603271  0.30834876  0.34671075    -0.73700
C2083       C  0.88913648  0.28399851  0.34662027     0.98700
O2084       O  0.96964166  0.37427731  0.33124620    -0.62500
O2085       O  0.89169118  0.35991295  0.25639756    -0.57300
O2086       O  0.95258511  0.32086257  0.30668763    -0.94000
O2087       O  0.92340136  0.30826648  0.28135039    -0.92400
O2088       O  0.90743091  0.44340795  0.27345797    -0.92700
O2089       O  0.93037567  0.46345106  0.30694592    -0.91500
C2090       C  0.95121771  0.30679250  0.29128255     1.17500
H2091       H  0.83286166  0.40236601  0.27343702     0.33500
H2092       H  0.90154656  0.42414845  0.33528799     0.44300
H2093       H  0.88250293  0.28546083  0.30960866     0.37800
H2094       H  0.76586917  0.35871822  0.33514210     0.34300
H2095       H  0.87790391  0.51217582  0.30327955     0.26100
H2096       H  0.80425439  0.44413736  0.37447003     0.32100
H2097       H  0.81543547  0.23040752  0.33596052     0.38000
H2098       H  0.90569322  0.46922621  0.27058656     0.32400
H2099       H  0.88628785  0.34170487  0.24731776     0.31300
H2100       H  0.87379052  0.27952322  0.25897947     0.33000
H2101       H  0.81596326  0.26869402  0.29407291     0.31900
H2102       H  0.94806594  0.44484365  0.30386851     0.35900
H2103       H  0.98538165  0.35316245  0.33212981     0.28700
H2104       H  0.71013174  0.41812301  0.29605647     0.32900
H2105       H  0.74347955  0.29622728  0.33642359     0.35800
H2106       H  0.87754916  0.38102291  0.25296656     0.28400
H2107       H  0.97651929  0.38592973  0.31996576     0.41200
H2108       H  0.86894755  0.46730814  0.35116158     0.31300
H2109       H  0.84107506  0.50174357  0.31163525     0.38900
H2110       H  0.79161781  0.24647681  0.30669276     0.30800
H2111       H  0.80375082  0.40400594  0.38098559     0.30800
H2112       H  0.70552575  0.38142267  0.30594393     0.31100
C2113       C  0.70050940  0.48386836  0.38933013    -0.05300
C2114       C  0.72643006  0.49879165  0.37738397    -0.02400
C2115       C  0.73656505  0.48130544  0.36140193     0.02600
C2116       C  0.72353066  0.44690001  0.35708758    -0.05300
C2117       C  0.69872121  0.43114045  0.36922834    -0.02400
C2118       C  0.68661076  0.44971955  0.38482505     0.02600
C2119       C  0.74390538  0.53240788  0.38167251     0.37300
C2120       C  0.68561215  0.39544398  0.36557041     0.37200
C2121       C  0.65946205  0.43386933  0.39608272     0.35700
C2122       C  0.76215108  0.49838202  0.34958123     0.35700
N2123       N  0.63773055  0.42135346  0.40513529    -0.39200
N2124       N  0.78235753  0.51216159  0.34011807    -0.39200
N2125       N  0.67518283  0.36693535  0.36251116    -0.38600
N2126       N  0.75790226  0.55919515  0.38498948    -0.38600
C2127       C  0.04878998  0.24568522  0.28400600    -0.05300
C2128       C  0.04999156  0.28347156  0.28513300    -0.02400
C2129       C  0.01811903  0.30385113  0.28597735     0.02600
C2130       C  0.98430323  0.28685319  0.28537270    -0.05300
C2131       C  0.98332156  0.24953919  0.28200841    -0.02400
C2132       C  0.01531916  0.22920931  0.28132229     0.02600
C2133       C  0.08421439  0.30128554  0.28607107     0.37300
C2134       C  0.94927070  0.23152630  0.28063413     0.37200
C2135       C  0.01397898  0.19104411  0.27801970     0.35700
C2136       C  0.02015893  0.34242562  0.28799411     0.35700
N2137       N  0.01317441  0.16064188  0.27508583    -0.39200
N2138       N  0.02183961  0.37322175  0.28955754    -0.39200
N2139       N  0.92200891  0.21720322  0.27966756    -0.38600
N2140       N  0.11162566  0.31542062  0.28653748    -0.38600
C2141       C  0.53599311  0.73010822  0.47204922    -0.05300
C2142       C  0.49850510  0.72715564  0.47309280    -0.02400
C2143       C  0.47691867  0.75840017  0.47341623     0.02600
C2144       C  0.49234987  0.79311739  0.47222853    -0.05300
C2145       C  0.52982332  0.79602448  0.47261532    -0.02400
C2146       C  0.55137179  0.76484141  0.47259145     0.02600
C2147       C  0.48196974  0.69204903  0.47228211     0.37300
C2148       C  0.54639471  0.83108994  0.47132276     0.37200
C2149       C  0.58976428  0.76845683  0.47192366     0.35700
C2150       C  0.43852008  0.75489890  0.47432112     0.35700
N2151       N  0.62042026  0.77112189  0.47135637    -0.39200
N2152       N  0.40787028  0.75230208  0.47516895    -0.39200
N2153       N  0.55959648  0.85907548  0.47017554    -0.38600
N2154       N  0.46863142  0.66409571  0.47153576    -0.38600
C2155       C  0.33147041  0.04811091  0.39380612    -0.05300
C2156       C  0.34780237  0.07776701  0.38507364    -0.02400
C2157       C  0.33143903  0.09462450  0.37006203     0.02600
C2158       C  0.29885376  0.08161118  0.36307128    -0.05300
C2159       C  0.28301410  0.05178425  0.37186299    -0.02400
C2160       C  0.29825431  0.03629567  0.38715623     0.02600
C2161       C  0.38128525  0.09115747  0.39164245     0.37300
C2162       C  0.25020189  0.03668258  0.36516146     0.37200
C2163       C  0.27916311  0.00772859  0.39632042     0.35700
C2164       C  0.34803161  0.12558333  0.36188101     0.35700
N2165       N  0.26408334  0.98502212  0.40370159    -0.39200
N2166       N  0.36139207  0.15023838  0.35526461    -0.39200
N2167       N  0.22412504  0.02429987  0.35992188    -0.38600
N2168       N  0.40787418  0.10205258  0.39704971    -0.38600
C2169       C  0.59611668  0.73493978  0.34155169    -0.05300
C2170       C  0.61002960  0.70063900  0.33874663    -0.02400
C2171       C  0.61623492  0.67828647  0.35329945     0.02600
C2172       C  0.60524922  0.68948748  0.37045091    -0.05300
C2173       C  0.58239556  0.71982280  0.37189395    -0.02400
C2174       C  0.57758075  0.74227465  0.35725141     0.02600
C2175       C  0.62185781  0.69066789  0.32112075     0.37300
C2176       C  0.56523532  0.72994670  0.38837741     0.37200
C2177       C  0.55730233  0.77517403  0.35894952     0.35700
C2178       C  0.63699127  0.64622333  0.35034760     0.35700
N2179       N  0.54114190  0.80137294  0.36022763    -0.39200
N2180       N  0.65395099  0.62122473  0.34718458    -0.39200
N2181       N  0.55120759  0.73941870  0.40120583    -0.38600
N2182       N  0.63108372  0.68271585  0.30704655    -0.38600
C2183       C  0.58422853  0.88592850  0.37346823    -0.05300
C2184       C  0.55235710  0.90298773  0.36923853    -0.02400
C2185       C  0.52119161  0.89269713  0.37782016     0.02600
C2186       C  0.52275721  0.87224691  0.39356654    -0.05300
C2187       C  0.55540440  0.85720957  0.39880304    -0.02400
C2188       C  0.58602875  0.86286220  0.38821222     0.02600
C2189       C  0.55126094  0.92933029  0.35505586     0.37300
C2190       C  0.55734432  0.83535741  0.41458871     0.37200
C2191       C  0.61864823  0.84388380  0.39194601     0.35700
C2192       C  0.48760998  0.90182139  0.36966384     0.35700
N2193       N  0.64455526  0.82850653  0.39492539    -0.39200
N2194       N  0.46136202  0.90918062  0.36274975    -0.39200
N2195       N  0.55872809  0.81771940  0.42713696    -0.38600
N2196       N  0.55026138  0.95049653  0.34389662    -0.38600
C2197       C  0.86474310  0.18195335  0.36860649    -0.05300
C2198       C  0.84383522  0.21133270  0.37334874    -0.02400
C2199       C  0.85214892  0.24494323  0.36634326     0.02600
C2200       C  0.87963138  0.24827095  0.35331961    -0.05300
C2201       C  0.89710171  0.21741788  0.34690502    -0.02400
C2202       C  0.88932363  0.18405599  0.35453543     0.02600
C2203       C  0.81694817  0.20755922  0.38719810     0.37300
C2204       C  0.92463588  0.21996361  0.33339838     0.37200
C2205       C  0.90975715  0.15265186  0.34954856     0.35700
C2206       C  0.83350817  0.27588242  0.37348331     0.35700
N2207       N  0.92617317  0.12765704  0.34569030    -0.39200
N2208       N  0.81841299  0.30030875  0.37917367    -0.39200
N2209       N  0.94702740  0.22196214  0.32284175    -0.38600
N2210       N  0.79568492  0.20464386  0.39827537    -0.38600
C2211       C  0.04354349  0.17544752  0.40712873    -0.05300
C2212       C  0.04377680  0.20662996  0.39654834    -0.02400
C2213       C  0.07588333  0.21803841  0.38882342     0.02600
C2214       C  0.10586661  0.19575000  0.38974814    -0.05300
C2215       C  0.10802216  0.17170514  0.40400084    -0.02400
C2216       C  0.07648641  0.16113328  0.41270027     0.02600
C2217       C  0.01109791  0.22387039  0.39139289     0.37300
C2218       C  0.14176946  0.15617888  0.40891356     0.37200
C2219       C  0.07802753  0.13368629  0.42623160     0.35700
C2220       C  0.07743263  0.25041052  0.37838727     0.35700
N2221       N  0.08009206  0.11162606  0.43691344    -0.39200
N2222       N  0.07905239  0.27650000  0.37022265    -0.39200
N2223       N  0.16860711  0.14385617  0.41304620    -0.38600
N2224       N  0.98496851  0.23719970  0.38699081    -0.38600
C2225       C  0.85032539  0.95525659  0.38352404    -0.05300
C2226       C  0.82220919  0.93152596  0.38779581    -0.02400
C2227       C  0.80302861  0.91309560  0.37428207     0.02600
C2228       C  0.80877426  0.92035037  0.35588032    -0.05300
C2229       C  0.83939712  0.94099271  0.35162665    -0.02400
C2230       C  0.86059944  0.95685897  0.36525103     0.02600
C2231       C  0.81174246  0.92720202  0.40611865     0.37300
C2232       C  0.84870005  0.94700512  0.33325687     0.37200
C2233       C  0.89376335  0.97441871  0.36040955     0.35700
C2234       C  0.77810012  0.88526234  0.37949626     0.35700
N2235       N  0.92061232  0.98761872  0.35646200    -0.39200
N2236       N  0.75893701  0.86246652  0.38382020    -0.39200
N2237       N  0.85630913  0.95186154  0.31859935    -0.38600
N2238       N  0.80331990  0.92382623  0.42076464    -0.38600
C2239       C  0.47431629  0.75123206  0.27310640    -0.05300
C2240       C  0.47551929  0.78887585  0.27477705    -0.02400
C2241       C  0.50876364  0.80728229  0.27583800     0.02600
C2242       C  0.54162344  0.78846876  0.27474000    -0.05300
C2243       C  0.54008614  0.75160203  0.27036523    -0.02400
C2244       C  0.50678641  0.73320843  0.26974928     0.02600
C2245       C  0.44242543  0.80847875  0.27596112     0.37300
C2246       C  0.57270878  0.73189904  0.26753326     0.37200
C2247       C  0.50561788  0.69507226  0.26622656     0.35700
C2248       C  0.50912322  0.84574778  0.27848031     0.35700
N2249       N  0.50394190  0.66467613  0.26335866    -0.39200
N2250       N  0.50953255  0.87645167  0.28058099    -0.39200
N2251       N  0.59862422  0.71597906  0.26509005    -0.38600
N2252       N  0.41588038  0.82401143  0.27655118    -0.38600
C2253       C  0.41813436  0.79196812  0.34176126    -0.05300
C2254       C  0.44065050  0.78535785  0.35602221    -0.02400
C2255       C  0.43874891  0.80764299  0.37083297     0.02600
C2256       C  0.41466142  0.83698993  0.37105746    -0.05300
C2257       C  0.39732185  0.84687626  0.35525263    -0.02400
C2258       C  0.40036450  0.82483762  0.34039228     0.02600
C2259       C  0.46268574  0.75343049  0.35637100     0.37300
C2260       C  0.37334313  0.87718488  0.35449916     0.37200
C2261       C  0.38176386  0.83352729  0.32424683     0.35700
C2262       C  0.46001723  0.79799755  0.38596959     0.35700
N2263       N  0.36689577  0.84011776  0.31136407    -0.39200
N2264       N  0.47723995  0.78819918  0.39756097    -0.39200
N2265       N  0.35390008  0.90104985  0.35365614    -0.38600
N2266       N  0.48036915  0.72815249  0.35675325    -0.38600
C2267       C  0.50060217  0.65363741  0.39614000    -0.05300
C2268       C  0.46771332  0.67083789  0.39859472    -0.02400
C2269       C  0.44177556  0.66794587  0.38545081     0.02600
C2270       C  0.44861828  0.64659180  0.37046152    -0.05300
C2271       C  0.48165571  0.63009228  0.36793305    -0.02400
C2272       C  0.50801794  0.63458987  0.38046686     0.02600
C2273       C  0.46069169  0.69130921  0.41448606     0.37300
C2274       C  0.48827480  0.60750817  0.35260725     0.37200
C2275       C  0.54204855  0.61763542  0.37732350     0.35700
C2276       C  0.40870625  0.68756827  0.38704732     0.35700
N2277       N  0.56810088  0.60280779  0.37385928    -0.39200
N2278       N  0.38243879  0.70343539  0.38826749    -0.39200
N2279       N  0.49388963  0.58915853  0.34061193    -0.38600
N2280       N  0.45486653  0.70782891  0.42709323    -0.38600
C2281       C  0.03717242  0.29289437  0.45640092    -0.05300
C2282       C  0.99962321  0.29444684  0.45674522    -0.02400
C2283       C  0.97856835  0.26254552  0.45683900     0.02600
C2284       C  0.99439420  0.22795508  0.45714568    -0.05300
C2285       C  0.03195492  0.22666399  0.45861680    -0.02400
C2286       C  0.05310892  0.25861509  0.45769445     0.02600
C2287       C  0.98248835  0.32913456  0.45594131     0.37300
C2288       C  0.04911585  0.19249165  0.46104711     0.37200
C2289       C  0.09156149  0.25615462  0.45771745     0.35700
C2290       C  0.94018648  0.26558837  0.45651441     0.35700
N2291       N  0.12226237  0.25415413  0.45773670    -0.39200
N2292       N  0.90956712  0.26837793  0.45630142    -0.39200
N2293       N  0.06309985  0.16549212  0.46361668    -0.38600
N2294       N  0.96884012  0.35682473  0.45531069    -0.38600
C2295       C  0.11767946  0.31917017  0.32900069    -0.05300
C2296       C  0.08406192  0.32349525  0.33694879    -0.02400
C2297       C  0.08048004  0.34944171  0.35023240     0.02600
C2298       C  0.11007026  0.37152722  0.35417546    -0.05300
C2299       C  0.13747341  0.37522928  0.34131821    -0.02400
C2300       C  0.14037772  0.34916905  0.32811793     0.02600
C2301       C  0.05494551  0.29949068  0.33270761     0.37300
C2302       C  0.16415366  0.40325850  0.34221517     0.37200
C2303       C  0.16769455  0.35177075  0.31450365     0.35700
C2304       C  0.04773602  0.35155259  0.36044301     0.35700
N2305       N  0.18911299  0.35445130  0.30348904    -0.39200
N2306       N  0.02141002  0.35266874  0.36846917    -0.39200
N2307       N  0.18575660  0.42541299  0.34247774    -0.38600
N2308       N  0.03191079  0.28015508  0.32925794    -0.38600
C2309       C  0.91574034  0.37317095  0.38722737    -0.05300
C2310       C  0.91929764  0.40692057  0.39521913    -0.02400
C2311       C  0.94728043  0.41296853  0.40687960     0.02600
C2312       C  0.97264784  0.38553282  0.40969064    -0.05300
C2313       C  0.96468165  0.35016115  0.40438594    -0.02400
C2314       C  0.93569989  0.34401641  0.39332379     0.02600
C2315       C  0.89738388  0.43686825  0.38982613     0.37300
C2316       C  0.98752438  0.32057168  0.40923258     0.37200
C2317       C  0.92722044  0.30800369  0.38776088     0.35700
C2318       C  0.95126758  0.44860536  0.41425727     0.35700
N2319       N  0.92065069  0.27878248  0.38395580    -0.39200
N2320       N  0.95359362  0.47728821  0.41989478    -0.39200
N2321       N  0.00623424  0.29729626  0.41294727    -0.38600
N2322       N  0.88075002  0.46150399  0.38581022    -0.38600
C2323       C  0.23295361  0.58045512  0.35753933    -0.05300
C2324       C  0.20139088  0.59664474  0.36404316    -0.02400
C2325       C  0.18323943  0.58274102  0.37943937     0.02600
C2326       C  0.19788009  0.55451560  0.38976047    -0.05300
C2327       C  0.23020562  0.53962434  0.38360417    -0.02400
C2328       C  0.24604825  0.55066536  0.36730829     0.02600
C2329       C  0.18822823  0.62834497  0.35529139     0.37300
C2330       C  0.24749970  0.51229830  0.39400519     0.37200
C2331       C  0.27583955  0.53026149  0.36033069     0.35700
C2332       C  0.14961639  0.59807577  0.38490334     0.35700
N2333       N  0.29937417  0.51376255  0.35474366    -0.39200
N2334       N  0.12274470  0.61039125  0.38926467    -0.39200
N2335       N  0.26229476  0.49108619  0.40226609    -0.38600
N2336       N  0.17798273  0.65388066  0.34835380    -0.38600
C2337       C  0.35369575  0.44984097  0.88701133    -0.05300
C2338       C  0.36343571  0.45265594  0.86867607    -0.02400
C2339       C  0.34425448  0.43423922  0.85509635     0.02600
C2340       C  0.31525575  0.41138857  0.85931885    -0.05300
C2341       C  0.31053125  0.40328225  0.87772582    -0.02400
C2342       C  0.32857482  0.42289582  0.89130103     0.02600
C2343       C  0.39373316  0.47474995  0.86365903     0.37300
C2344       C  0.28876488  0.37279751  0.88279179     0.37200
C2345       C  0.32085221  0.41554742  0.90970908     0.35700
C2346       C  0.35468405  0.43885621  0.83677938     0.35700
N2347       N  0.31495207  0.40945441  0.92443597    -0.39200
N2348       N  0.36352692  0.44215476  0.82218452    -0.39200
N2349       N  0.27236074  0.34780418  0.88693309    -0.38600
N2350       N  0.41801468  0.49222454  0.85964560    -0.38600
C2351       C  0.53922852  0.78996377  0.95384048    -0.05300
C2352       C  0.50165245  0.79218640  0.95370048    -0.02400
C2353       C  0.48010780  0.76061043  0.95309698     0.02600
C2354       C  0.49547766  0.72587922  0.95369907    -0.05300
C2355       C  0.53284860  0.72381465  0.95564426    -0.02400
C2356       C  0.55447258  0.75536091  0.95526439     0.02600
C2357       C  0.48509367  0.82714881  0.95368009     0.37300
C2358       C  0.54938122  0.68899110  0.95724369     0.37200
C2359       C  0.59277169  0.75219743  0.95628822     0.35700
C2360       C  0.44186834  0.76395252  0.95160858     0.35700
N2361       N  0.62336831  0.74980327  0.95714333    -0.39200
N2362       N  0.41134821  0.76655352  0.95035461    -0.39200
N2363       N  0.56242015  0.66114076  0.95871142    -0.38600
N2364       N  0.47201749  0.85514104  0.95397902    -0.38600
C2365       C  0.98811196  0.23379466  0.77591858    -0.05300
C2366       C  0.02107643  0.21499384  0.77572497    -0.02400
C2367       C  0.05441474  0.23345644  0.77519372     0.02600
C2368       C  0.05600725  0.27128874  0.77512644    -0.05300
C2369       C  0.02328499  0.28999431  0.77366314    -0.02400
C2370       C  0.98980676  0.27153614  0.77391080     0.02600
C2371       C  0.02087362  0.17619963  0.77684542     0.37300
C2372       C  0.02419055  0.32874227  0.77245507     0.37200
C2373       C  0.95710013  0.29176491  0.77324861     0.35700
C2374       C  0.08724550  0.21335097  0.77588164     0.35700
N2375       N  0.93099780  0.30797182  0.77257452    -0.39200
N2376       N  0.11341962  0.19721263  0.77631809    -0.39200
N2377       N  0.02522855  0.35966593  0.77140914    -0.38600
N2378       N  0.02073099  0.14526134  0.77786314    -0.38600
C2379       C  0.72631523  0.10140601  0.86101933    -0.05300
C2380       C  0.69451511  0.08223325  0.85771808    -0.02400
C2381       C  0.67446792  0.06607603  0.87190063     0.02600
C2382       C  0.68689105  0.06604635  0.88969441    -0.05300
C2383       C  0.71592946  0.08885621  0.89323922    -0.02400
C2384       C  0.73434150  0.10742614  0.87924819     0.02600
C2385       C  0.68314188  0.07743176  0.83968098     0.37300
C2386       C  0.72798529  0.09196374  0.91124596     0.37200
C2387       C  0.76125256  0.13358400  0.88382256     0.35700
C2388       C  0.64074572  0.04892592  0.86813844     0.35700
N2389       N  0.78213029  0.15491578  0.88773927    -0.39200
N2390       N  0.61354873  0.03577021  0.86516042    -0.39200
N2391       N  0.73747348  0.09436332  0.92567136    -0.38600
N2392       N  0.67398896  0.07350658  0.82527854    -0.38600
C2393       C  0.93787583  0.27814194  0.83952383    -0.05300
C2394       C  0.92417150  0.31271900  0.83688944    -0.02400
C2395       C  0.92311250  0.33687989  0.85103814     0.02600
C2396       C  0.93537933  0.32568380  0.86778583    -0.05300
C2397       C  0.95590411  0.29384880  0.86897377    -0.02400
C2398       C  0.95859566  0.27100849  0.85436243     0.02600
C2399       C  0.90668067  0.32135627  0.82044181     0.37300
C2400       C  0.97177604  0.28223628  0.88535772     0.37200
C2401       C  0.97817732  0.23760915  0.85556566     0.35700
C2402       C  0.90583158  0.37117445  0.84858193     0.35700
N2403       N  0.99387168  0.21106664  0.85638960    -0.39200
N2404       N  0.89202026  0.39841886  0.84635009    -0.39200
N2405       N  0.98436702  0.27108633  0.89809169    -0.38600
N2406       N  0.89227888  0.32837494  0.80748186    -0.38600
C2407       C  0.03812492  0.35298762  0.89932018    -0.05300
C2408       C  0.06582078  0.32793919  0.90003475    -0.02400
C2409       C  0.09286179  0.32925852  0.88710273     0.02600
C2410       C  0.09235531  0.35660703  0.87422168    -0.05300
C2411       C  0.06451369  0.38131900  0.87351778    -0.02400
C2412       C  0.03702722  0.37912456  0.88587222     0.02600
C2413       C  0.06630023  0.30134539  0.91401430     0.37300
C2414       C  0.06387057  0.40863364  0.85977797     0.37200
C2415       C  0.00807450  0.40447493  0.88471463     0.35700
C2416       C  0.12063019  0.30244257  0.88678467     0.35700
N2417       N  0.98589895  0.42555204  0.88322629    -0.39200
N2418       N  0.14272755  0.28097292  0.88644184    -0.39200
N2419       N  0.06346797  0.43028272  0.84883199    -0.38600
N2420       N  0.06629484  0.28031752  0.92526065    -0.38600
C2421       C  0.61598086  0.67424297  0.88690425    -0.05300
C2422       C  0.61803919  0.64677834  0.89975445    -0.02400
C2423       C  0.58717510  0.63715263  0.90934343     0.02600
C2424       C  0.55469997  0.65425463  0.90551995    -0.05300
C2425       C  0.55572496  0.68723198  0.89632434    -0.02400
C2426       C  0.58718822  0.69816868  0.88778904     0.02600
C2427       C  0.65075886  0.62726185  0.90255955     0.37300
C2428       C  0.52368464  0.70756881  0.89382748     0.37200
C2429       C  0.58907812  0.73235741  0.87864733     0.35700
C2430       C  0.58866330  0.60936421  0.92272431     0.35700
N2431       N  0.59089143  0.75960287  0.87137341    -0.39200
N2432       N  0.59008842  0.58751661  0.93354601    -0.39200
N2433       N  0.49700683  0.72226626  0.89212391    -0.38600
N2434       N  0.67677158  0.61166365  0.90501719    -0.38600
C2435       C  0.63733595  0.81582026  0.82851773    -0.05300
C2436       C  0.60427845  0.82184700  0.83665104    -0.02400
C2437       C  0.60257763  0.84573069  0.85086657     0.02600
C2438       C  0.63422117  0.86284527  0.85631870    -0.05300
C2439       C  0.66339104  0.86496433  0.84442063    -0.02400
C2440       C  0.66305883  0.84323345  0.82941047     0.02600
C2441       C  0.57301626  0.80330411  0.83051144     0.37300
C2442       C  0.69489162  0.88597489  0.84823961     0.37200
C2443       C  0.69011712  0.84694803  0.81574992     0.35700
C2444       C  0.56900672  0.85237378  0.85982647     0.35700
N2445       N  0.71132801  0.85060935  0.80470419    -0.39200
N2446       N  0.54202997  0.85807703  0.86672290    -0.39200
N2447       N  0.72030053  0.90237189  0.85123498    -0.38600
N2448       N  0.54806706  0.78894496  0.82520012    -0.38600
C2449       C  0.80867162  0.56958827  0.85782699    -0.05300
C2450       C  0.79320940  0.53840478  0.86560815    -0.02400
C2451       C  0.80799563  0.52142721  0.88076183     0.02600
C2452       C  0.84005631  0.53363353  0.88860574    -0.05300
C2453       C  0.85652097  0.56402055  0.88052986    -0.02400
C2454       C  0.84071085  0.58216759  0.86565801     0.02600
C2455       C  0.76131202  0.52340066  0.85789179     0.37300
C2456       C  0.89027493  0.57616228  0.88732644     0.37200
C2457       C  0.85760596  0.61388800  0.85841783     0.35700
C2458       C  0.78972871  0.49070339  0.88843817     0.35700
N2459       N  0.87142230  0.63913802  0.85263660    -0.39200
N2460       N  0.77527153  0.46620761  0.89461094    -0.39200
N2461       N  0.91729189  0.58563114  0.89284756    -0.38600
N2462       N  0.73599422  0.51125296  0.85170711    -0.38600
C2463       C  0.03182023  0.21286705  0.97053570    -0.05300
C2464       C  0.04609218  0.24772268  0.97282424    -0.02400
C2465       C  0.02376606  0.27840195  0.97274829     0.02600
C2466       C  0.98653722  0.27474999  0.97074512    -0.05300
C2467       C  0.97199521  0.23959904  0.97040342    -0.02400
C2468       C  0.99440774  0.20895482  0.97020747     0.02600
C2469       C  0.08422418  0.25203455  0.97454195     0.37300
C2470       C  0.93378079  0.23499702  0.96941144     0.37200
C2471       C  0.97901183  0.17354462  0.96816064     0.35700
C2472       C  0.03961721  0.31385410  0.97305182     0.35700
N2473       N  0.96669875  0.14531745  0.96641229    -0.39200
N2474       N  0.05247951  0.34207535  0.97317907    -0.39200
N2475       N  0.90327348  0.23122397  0.96869454    -0.38600
N2476       N  0.11466197  0.25526450  0.97601468    -0.38600
C2477       C  0.01353989  0.13262035  0.89089405    -0.05300
C2478       C  0.98086116  0.14844902  0.89582909    -0.02400
C2479       C  0.95110186  0.14406580  0.88494145     0.02600
C2480       C  0.95361874  0.12217037  0.86985841    -0.05300
C2481       C  0.98558501  0.10502516  0.86545512    -0.02400
C2482       C  0.01606505  0.11234993  0.87508456     0.02600
C2483       C  0.97761313  0.16884146  0.91203148     0.37300
C2484       C  0.98714914  0.08028072  0.85065603     0.37200
C2485       C  0.05001818  0.09965347  0.86820110     0.35700
C2486       C  0.91830052  0.16285880  0.88887524     0.35700
N2487       N  0.07682017  0.08936112  0.86258075    -0.39200
N2488       N  0.89210605  0.17786714  0.89195079    -0.39200
N2489       N  0.98833715  0.06019096  0.83905207    -0.38600
N2490       N  0.97514515  0.18509958  0.92497229    -0.38600
C2491       C  0.11989641  0.17124468  0.86912329    -0.05300
C2492       C  0.13853240  0.16123861  0.85348917    -0.02400
C2493       C  0.13466059  0.18166198  0.83808274     0.02600
C2494       C  0.11633398  0.21430055  0.83893054    -0.05300
C2495       C  0.09270965  0.22080016  0.85302162    -0.02400
C2496       C  0.09464703  0.19955808  0.86826135     0.02600
C2497       C  0.16548885  0.13357889  0.85350673     0.37300
C2498       C  0.06999720  0.25222884  0.85286168     0.37200
C2499       C  0.07262212  0.20967221  0.88326643     0.35700
C2500       C  0.15343543  0.17197686  0.82193457     0.35700
N2501       N  0.05500172  0.21953295  0.89487257    -0.39200
N2502       N  0.16835808  0.16413623  0.80908117    -0.39200
N2503       N  0.05213952  0.27739686  0.85275587    -0.38600
N2504       N  0.18778532  0.11232895  0.85316332    -0.38600
C2505       C  0.43187169  0.84546720  0.88265170    -0.05300
C2506       C  0.42715283  0.87256036  0.89556101    -0.02400
C2507       C  0.45520925  0.88055310  0.90696848     0.02600
C2508       C  0.48741221  0.86160559  0.90527202    -0.05300
C2509       C  0.48677747  0.82791269  0.89685884    -0.02400
C2510       C  0.45910026  0.82005771  0.88517005     0.02600
C2511       C  0.39443882  0.89286827  0.89699342     0.37300
C2512       C  0.51485842  0.80237997  0.89995012     0.37200
C2513       C  0.45878343  0.78668686  0.87546098     0.35700
C2514       C  0.45076587  0.90768545  0.92049316     0.35700
N2515       N  0.45736747  0.76051260  0.86734697    -0.39200
N2516       N  0.44676354  0.92888824  0.93145181    -0.39200
N2517       N  0.53824556  0.78357946  0.90321379    -0.38600
N2518       N  0.36828115  0.90892053  0.89827064    -0.38600
C2519       C  0.48848972  0.77483768  0.77899213    -0.05300
C2520       C  0.48919635  0.73712156  0.78091230    -0.02400
C2521       C  0.52202292  0.71837297  0.78206229     0.02600
C2522       C  0.55514061  0.73667421  0.78088529    -0.05300
C2523       C  0.55445136  0.77399654  0.77737589    -0.02400
C2524       C  0.52152566  0.79290958  0.77672922     0.02600
C2525       C  0.45593823  0.71783924  0.78328714     0.37300
C2526       C  0.58767435  0.79361606  0.77583425     0.37200
C2527       C  0.52168686  0.83158062  0.77495241     0.35700
C2528       C  0.52170536  0.68019651  0.78561507     0.35700
N2529       N  0.52181364  0.86247306  0.77361822    -0.39200
N2530       N  0.52154326  0.64977262  0.78857710    -0.39200
N2531       N  0.61403575  0.80957209  0.77454057    -0.38600
N2532       N  0.42936836  0.70248294  0.78517038    -0.38600
C2533       C  0.41286132  0.69981548  0.82793227    -0.05300
C2534       C  0.44452398  0.69393537  0.83706205    -0.02400
C2535       C  0.44440457  0.66821976  0.85054814     0.02600
C2536       C  0.41207955  0.65101370  0.85504805    -0.05300
C2537       C  0.38508847  0.64906833  0.84231240    -0.02400
C2538       C  0.38765387  0.67170064  0.82762056     0.02600
C2539       C  0.47614833  0.71441584  0.83296095     0.37300
C2540       C  0.35384625  0.62665053  0.84470977     0.37200
C2541       C  0.36257871  0.66873071  0.81330438     0.35700
C2542       C  0.47694342  0.65841991  0.85933947     0.35700
N2543       N  0.34287454  0.66551013  0.80179441    -0.39200
N2544       N  0.50290663  0.64932035  0.86600731    -0.39200
N2545       N  0.32861122  0.60905425  0.84634802    -0.38600
N2546       N  0.50176385  0.73036007  0.82966472    -0.38600
C2547       C  0.23234147  0.93316120  0.85844834    -0.05300
C2548       C  0.24827038  0.96365240  0.86641011    -0.02400
C2549       C  0.23600300  0.97769681  0.88286716     0.02600
C2550       C  0.20458639  0.96470283  0.89146877    -0.05300
C2551       C  0.18746182  0.93507508  0.88323467    -0.02400
C2552       C  0.20176612  0.91888737  0.86730125     0.02600
C2553       C  0.27824377  0.98089850  0.85756199     0.37300
C2554       C  0.15497905  0.92131688  0.89111148     0.37200
C2555       C  0.18487950  0.88756561  0.85989306     0.35700
C2556       C  0.25646438  0.00605410  0.89115220     0.35700
N2557       N  0.17138322  0.86264060  0.85379831    -0.39200
N2558       N  0.27287113  0.02851367  0.89778014    -0.39200
N2559       N  0.12904619  0.91032826  0.89750546    -0.38600
N2560       N  0.30191558  0.99499526  0.85050736    -0.38600
C2561       C  0.05059861  0.51372221  0.00813953    -0.05300
C2562       C  0.04230157  0.52866491  0.99134650    -0.02400
C2563       C  0.00895016  0.52199452  0.98329735     0.02600
C2564       C  0.98319863  0.49979078  0.99165129    -0.05300
C2565       C  0.99056762  0.48687326  0.00885884    -0.02400
C2566       C  0.02416351  0.49252214  0.01669572     0.02600
C2567       C  0.06853042  0.55009322  0.98182515     0.37300
C2568       C  0.96309819  0.46781402  0.01876225     0.37200
C2569       C  0.03100787  0.47623536  0.03370909     0.35700
C2570       C  0.00183294  0.53735537  0.96610243     0.35700
N2571       N  0.03633895  0.46278517  0.04718903    -0.39200
N2572       N  0.99642524  0.54983212  0.95240541    -0.39200
N2573       N  0.94125772  0.45275436  0.02673938    -0.38600
N2574       N  0.08925459  0.56728621  0.97416901    -0.38600
C2575       C  0.24285775  0.52225286  0.01269596    -0.05300
C2576       C  0.27964518  0.51998592  0.01618034    -0.02400
C2577       C  0.30496586  0.52053998  0.00213238     0.02600
C2578       C  0.29372967  0.52409123  0.98445214    -0.05300
C2579       C  0.25688526  0.52303483  0.98095398    -0.02400
C2580       C  0.23162383  0.52191668  0.99496574     0.02600
C2581       C  0.29137790  0.51906584  0.03434156     0.37300
C2582       C  0.24491528  0.52465797  0.96285601     0.37200
C2583       C  0.19396400  0.52359487  0.99114939     0.35700
C2584       C  0.34260759  0.51978962  0.00598438     0.35700
N2585       N  0.16390473  0.52498440  0.98814236    -0.39200
N2586       N  0.37261099  0.51894384  0.00916465    -0.39200
N2587       N  0.23530533  0.52580197  0.94841493    -0.38600
N2588       N  0.30051153  0.51832758  0.04887179    -0.38600
C2589       C  0.25988678  0.22723444  0.26057508    -0.05300
C2590       C  0.24489597  0.23446823  0.24381588    -0.02400
C2591       C  0.24536879  0.26947770  0.23655089     0.02600
C2592       C  0.26389671  0.29781021  0.24499177    -0.05300
C2593       C  0.28046630  0.29012741  0.26136614    -0.02400
C2594       C  0.27931501  0.25513600  0.26877888     0.02600
C2595       C  0.22990960  0.20547771  0.23346262     0.37300
C2596       C  0.29856948  0.31832453  0.27097029     0.37200
C2597       C  0.29940314  0.24797832  0.28461525     0.35700
C2598       C  0.22681305  0.27554363  0.22013120     0.35700
N2599       N  0.31595767  0.24232806  0.29708756    -0.39200
N2600       N  0.21202959  0.28001467  0.20700258    -0.39200
N2601       N  0.31311805  0.34049983  0.27878018    -0.38600
N2602       N  0.21808030  0.18254027  0.22507847    -0.38600
C2603       C  0.27856192  0.48686939  0.23199420    -0.05300
C2604       C  0.28492598  0.52279740  0.22699936    -0.02400
C2605       C  0.28473794  0.55009811  0.23981188     0.02600
C2606       C  0.27714847  0.54196983  0.25766655    -0.05300
C2607       C  0.26611105  0.50696030  0.26226765    -0.02400
C2608       C  0.26703255  0.47930145  0.24946348     0.02600
C2609       C  0.29361261  0.53137257  0.20876241     0.37300
C2610       C  0.25672183  0.49889038  0.28045618     0.37200
C2611       C  0.25916593  0.44269502  0.25465689     0.35700
C2612       C  0.29580696  0.58607860  0.23494209     0.35700
N2613       N  0.25285069  0.41352105  0.25888257    -0.39200
N2614       N  0.30509252  0.61468062  0.23116447    -0.39200
N2615       N  0.24910782  0.49249801  0.29496891    -0.38600
N2616       N  0.30038152  0.53826326  0.19420852    -0.38600
C2617       C  0.18223464  0.45801398  0.11034538    -0.05300
C2618       C  0.20299957  0.42751520  0.10651930    -0.02400
C2619       C  0.22035338  0.40790166  0.12032152     0.02600
C2620       C  0.21881256  0.41889743  0.13850304    -0.05300
C2621       C  0.19490654  0.44697162  0.14245843    -0.02400
C2622       C  0.17607320  0.46520930  0.12875237     0.02600
C2623       C  0.20732113  0.41665866  0.08829685     0.37300
C2624       C  0.19118573  0.45889651  0.16056792     0.37200
C2625       C  0.15000862  0.49194653  0.13377596     0.35700
C2626       C  0.24006412  0.37600713  0.11558271     0.35700
N2627       N  0.12912234  0.51314933  0.13783531    -0.39200
N2628       N  0.25553247  0.35043285  0.11168620    -0.39200
N2629       N  0.18830655  0.46860988  0.17500898    -0.38600
N2630       N  0.21054543  0.40771060  0.07375391    -0.38600
C2631       C  0.49195610  0.01553826  0.00956054    -0.05300
C2632       C  0.51649851  0.99148785  0.01696384    -0.02400
C2633       C  0.54964402  0.98472882  0.00844057     0.02600
C2634       C  0.55863885  0.00105325  0.99191641    -0.05300
C2635       C  0.53310982  0.02406749  0.98421039    -0.02400
C2636       C  0.50001759  0.03049571  0.99274971     0.02600
C2637       C  0.50776994  0.97355949  0.03345802     0.37300
C2638       C  0.54002027  0.04090064  0.96722849     0.37200
C2639       C  0.47344829  0.05199091  0.98390408     0.35700
C2640       C  0.57468330  0.96138350  0.01717461     0.35700
N2641       N  0.45209732  0.06897205  0.97692224    -0.39200
N2642       N  0.59417025  0.94255232  0.02434810    -0.39200
N2643       N  0.54522720  0.05459401  0.95372017    -0.38600
N2644       N  0.50053614  0.95875579  0.04645102    -0.38600
C2645       C  0.29424581  0.02461122  0.01663177    -0.05300
C2646       C  0.25733226  0.02060540  0.01973973    -0.02400
C2647       C  0.23370268  0.01706361  0.00541974     0.02600
C2648       C  0.24651323  0.01978985  0.98785746    -0.05300
C2649       C  0.28363252  0.02001613  0.98477981    -0.02400
C2650       C  0.30746291  0.02157446  0.99911951     0.02600
C2651       C  0.24352920  0.02149920  0.03767239     0.37300
C2652       C  0.29716730  0.02005452  0.96678603     0.37200
C2653       C  0.34550471  0.02274725  0.99575326     0.35700
C2654       C  0.19592004  0.01265784  0.00876471     0.35700
N2655       N  0.37589382  0.02349549  0.99317727    -0.39200
N2656       N  0.16582626  0.00861886  0.01145760    -0.39200
N2657       N  0.30792328  0.01998600  0.95241473    -0.38600
N2658       N  0.23246174  0.02234212  0.05197729    -0.38600
C2659       C  0.40888681  0.20715434  0.16937686    -0.05300
C2660       C  0.44234116  0.20414868  0.16100801    -0.02400
C2661       C  0.44599055  0.17997167  0.14691197     0.02600
C2662       C  0.41582363  0.16136406  0.14099059    -0.05300
C2663       C  0.38610112  0.15769750  0.15243148    -0.02400
C2664       C  0.38459166  0.17857487  0.16772737     0.02600
C2665       C  0.47172539  0.22649249  0.16650379     0.37300
C2666       C  0.35581453  0.13547552  0.14799730     0.37200
C2667       C  0.35603994  0.17375727  0.18057637     0.35700
C2668       C  0.48040226  0.17110655  0.13963219     0.35700
N2669       N  0.33342424  0.16971551  0.19088029    -0.39200
N2670       N  0.50755457  0.16141870  0.13425544    -0.39200
N2671       N  0.33099826  0.11827896  0.14489366    -0.38600
N2672       N  0.49444439  0.24483520  0.17138763    -0.38600
C2673       C  0.26250331  0.72810336  0.25767782    -0.05300
C2674       C  0.27951388  0.73868070  0.24164820    -0.02400
C2675       C  0.28092848  0.77507395  0.23638620     0.02600
C2676       C  0.26055405  0.80122735  0.24533252    -0.05300
C2677       C  0.24378168  0.79094581  0.26153311    -0.02400
C2678       C  0.24418310  0.75481491  0.26746337     0.02600
C2679       C  0.29455841  0.71201342  0.22987941     0.37300
C2680       C  0.22726009  0.81777989  0.27274839     0.37200
C2681       C  0.22534872  0.74560963  0.28368503     0.35700
C2682       C  0.30531097  0.78540739  0.22232093     0.35700
N2683       N  0.21020570  0.73841025  0.29660497    -0.39200
N2684       N  0.32583173  0.79316089  0.21147017    -0.39200
N2685       N  0.21420803  0.83868065  0.28200691    -0.38600
N2686       N  0.30631227  0.69126907  0.22013196    -0.38600
C2687       C  0.23117494  0.99122273  0.23950253    -0.05300
C2688       C  0.22491801  0.97706201  0.25661144    -0.02400
C2689       C  0.22584469  0.99941425  0.27162134     0.02600
C2690       C  0.23347410  0.03626392  0.26985224    -0.05300
C2691       C  0.24263699  0.04992706  0.25287736    -0.02400
C2692       C  0.24080072  0.02762855  0.23774563     0.02600
C2693       C  0.21551477  0.93968229  0.25889625     0.37300
C2694       C  0.25220669  0.08735088  0.25072634     0.37200
C2695       C  0.24716454  0.04254703  0.22030719     0.35700
C2696       C  0.21817519  0.98452122  0.28896850     0.35700
N2697       N  0.25205305  0.05466933  0.20641638    -0.39200
N2698       N  0.21201638  0.97259667  0.30278135    -0.39200
N2699       N  0.26026699  0.11707235  0.24883435    -0.38600
N2700       N  0.20770274  0.91005832  0.26125215    -0.38600
C2701       C  0.13990926  0.66142187  0.13841084    -0.05300
C2702       C  0.10774352  0.67555867  0.14512853    -0.02400
C2703       C  0.10888718  0.69969910  0.15928075     0.02600
C2704       C  0.14204616  0.70821535  0.16650913    -0.05300
C2705       C  0.17026492  0.68355637  0.16406833    -0.02400
C2706       C  0.17039305  0.66197167  0.14903061     0.02600
C2707       C  0.07402070  0.66446118  0.13785390     0.37300
C2708       C  0.20039433  0.68249720  0.17587703     0.37200
C2709       C  0.20273670  0.64336746  0.14393310     0.35700
C2710       C  0.07669982  0.71545360  0.16635104     0.35700
N2711       N  0.22888189  0.62894166  0.14011430    -0.39200
N2712       N  0.05093446  0.72763848  0.17219467    -0.39200
N2713       N  0.22475652  0.68092374  0.18502805    -0.38600
N2714       N  0.04706068  0.65473413  0.13239600    -0.38600
C2715       C  0.30944346  0.94661946  0.14293610    -0.05300
C2716       C  0.29517433  0.97231560  0.13096033    -0.02400
C2717       C  0.31276673  0.98187672  0.11482167     0.02600
C2718       C  0.34756333  0.96995399  0.11083048    -0.05300
C2719       C  0.36328119  0.94641528  0.12339644    -0.02400
C2720       C  0.34396391  0.93365667  0.13874487     0.02600
C2721       C  0.26201916  0.99000228  0.13548592     0.37300
C2722       C  0.39956394  0.93491769  0.12040109     0.37200
C2723       C  0.35959427  0.90683429  0.15002601     0.35700
C2724       C  0.29480855  0.00482972  0.10233987     0.35700
N2725       N  0.37231945  0.88535133  0.15896051    -0.39200
N2726       N  0.27991578  0.02264208  0.09235748    -0.39200
N2727       N  0.42858274  0.92576458  0.11802627    -0.38600
N2728       N  0.23581663  0.00443087  0.13918575    -0.38600
C2729       C  0.77160057  0.29260519  0.26026469    -0.05300
C2730       C  0.78761438  0.28291267  0.24383735    -0.02400
C2731       C  0.78388823  0.24796312  0.23688433     0.02600
C2732       C  0.76256003  0.22181662  0.24562843    -0.05300
C2733       C  0.74716840  0.23105547  0.26219286    -0.02400
C2734       C  0.75105933  0.26609458  0.26928158     0.02600
C2735       C  0.80833801  0.30875082  0.23362415     0.37300
C2736       C  0.72839939  0.20390463  0.27245075     0.37200
C2737       C  0.73422362  0.27412995  0.28611740     0.35700
C2738       C  0.80250171  0.23965558  0.22051843     0.35700
N2739       N  0.72061627  0.28019872  0.29955265    -0.39200
N2740       N  0.81784432  0.23382913  0.20752811    -0.39200
N2741       N  0.71367219  0.18209180  0.28062497    -0.38600
N2742       N  0.82538685  0.32847377  0.22526920    -0.38600
C2743       C  0.74742250  0.03446276  0.23220946    -0.05300
C2744       C  0.75584594  0.04260756  0.24990661    -0.02400
C2745       C  0.75864836  0.01477358  0.26254393     0.02600
C2746       C  0.75457254  0.97862805  0.25744423    -0.05300
C2747       C  0.75162516  0.97049615  0.23931888    -0.02400
C2748       C  0.74750351  0.99828445  0.22677750     0.02600
C2749       C  0.75934777  0.07964808  0.25535807     0.37300
C2750       C  0.75010366  0.93337809  0.23378205     0.37200
C2751       C  0.74214949  0.98966786  0.20834733     0.35700
C2752       C  0.76232948  0.02325386  0.28110990     0.35700
N2753       N  0.73800867  0.98279950  0.19362386    -0.39200
N2754       N  0.76500916  0.02960908  0.29598031    -0.39200
N2755       N  0.74911045  0.90377189  0.22931010    -0.38600
N2756       N  0.76255014  0.10918300  0.25970124    -0.38600
C2757       C  0.54522365  0.24266131  0.22366200    -0.05300
C2758       C  0.51242783  0.22359126  0.22309952    -0.02400
C2759       C  0.47910593  0.24182081  0.22313936     0.02600
C2760       C  0.47759122  0.27969451  0.22328937    -0.05300
C2761       C  0.51016774  0.29859695  0.22549438    -0.02400
C2762       C  0.54348416  0.28024076  0.22596767     0.02600
C2763       C  0.51305349  0.18490328  0.22160457     0.37300
C2764       C  0.50951900  0.33732818  0.22657838     0.37200
C2765       C  0.57631279  0.30026130  0.22777191     0.35700
C2766       C  0.44628547  0.22160433  0.22164584     0.35700
N2767       N  0.60265587  0.31599681  0.22938157    -0.39200
N2768       N  0.41994155  0.20567525  0.22051072    -0.39200
N2769       N  0.50903582  0.36826862  0.22749042    -0.38600
N2770       N  0.51357807  0.15400474  0.22042317    -0.38600
C2771       C  0.54823504  0.17807793  0.09257128    -0.05300
C2772       C  0.58195959  0.16236226  0.08996218    -0.02400
C2773       C  0.60684609  0.16369052  0.10355921     0.02600
C2774       C  0.59747506  0.18090026  0.11956092    -0.05300
C2775       C  0.56829267  0.20502163  0.11962866    -0.02400
C2776       C  0.54425812  0.20452237  0.10564574     0.02600
C2777       C  0.58991629  0.14176920  0.07420143     0.37300
C2778       C  0.56042165  0.22813284  0.13452965     0.37200
C2779       C  0.51279970  0.22696734  0.10651838     0.35700
C2780       C  0.64030351  0.14486406  0.10134465     0.35700
N2781       N  0.48756356  0.24446264  0.10765754    -0.39200
N2782       N  0.66692557  0.12984441  0.09944899    -0.39200
N2783       N  0.55284924  0.24678437  0.14612946    -0.38600
N2784       N  0.59743460  0.12491842  0.06192445    -0.38600
C2785       C  0.98126367  0.00086505  0.00853400    -0.05300
C2786       C  0.98837746  0.98461140  0.99190295    -0.02400
C2787       C  0.02299771  0.98560555  0.98408903     0.02600
C2788       C  0.05144857  0.00343863  0.99256149    -0.05300
C2789       C  0.04450988  0.01830441  0.00956706    -0.02400
C2790       C  0.00966209  0.01891925  0.01688941     0.02600
C2791       C  0.95953751  0.96783314  0.98236158     0.37300
C2792       C  0.07350232  0.03237160  0.02006181     0.37200
C2793       C  0.00358246  0.03846213  0.03316486     0.35700
C2794       C  0.02906522  0.96751184  0.96743295     0.35700
N2795       N  0.99914751  0.05455668  0.04603457    -0.39200
N2796       N  0.03372194  0.95247892  0.95427177    -0.39200
N2797       N  0.09642103  0.04354777  0.02853627    -0.38600
N2798       N  0.93650109  0.95462077  0.97470207    -0.38600
C2799       C  0.79345395  0.98468624  0.01581981    -0.05300
C2800       C  0.75646816  0.98114764  0.01906187    -0.02400
C2801       C  0.73213740  0.98041618  0.00490672     0.02600
C2802       C  0.74425452  0.98342391  0.98724958    -0.05300
C2803       C  0.78078443  0.99032582  0.98407166    -0.02400
C2804       C  0.80523441  0.99121199  0.99827462     0.02600
C2805       C  0.74342145  0.97795786  0.03708171     0.37300
C2806       C  0.79327070  0.99536129  0.96606935     0.37200
C2807       C  0.84272548  0.99713802  0.99472667     0.35700
C2808       C  0.69460137  0.97502538  0.00849424     0.35700
N2809       N  0.87264914  0.00216891  0.99194545    -0.39200
N2810       N  0.66462776  0.97083892  0.01140973    -0.39200
N2811       N  0.80298639  0.99953612  0.95166199    -0.38600
N2812       N  0.73300639  0.97571379  0.05147213    -0.38600
C2813       C  0.05784969  0.86755737  0.09222906    -0.05300
C2814       C  0.08958517  0.88764462  0.09055001    -0.02400
C2815       C  0.11795885  0.88027419  0.10182867     0.02600
C2816       C  0.11384185  0.85299154  0.11471596    -0.05300
C2817       C  0.08671243  0.82702638  0.11248172    -0.02400
C2818       C  0.05929628  0.83377503  0.10051616     0.02600
C2819       C  0.09267192  0.91659101  0.07781298     0.37300
C2820       C  0.08561276  0.79535057  0.12355997     0.37200
C2821       C  0.03218014  0.80717963  0.09702795     0.35700
C2822       C  0.14954647  0.90268027  0.10090690     0.35700
N2823       N  0.00976314  0.78737831  0.09330356    -0.39200
N2824       N  0.17463631  0.92068291  0.09998597    -0.39200
N2825       N  0.08564803  0.77114254  0.13311783    -0.38600
N2826       N  0.09555539  0.93968627  0.06768733    -0.38600
C2827       C  0.80143699  0.08818352  0.14069597    -0.05300
C2828       C  0.78787171  0.06039165  0.12973274    -0.02400
C2829       C  0.80586712  0.04910141  0.11402574     0.02600
C2830       C  0.84066876  0.06119375  0.10981594    -0.05300
C2831       C  0.85587719  0.08660849  0.12167841    -0.02400
C2832       C  0.83591990  0.10122284  0.13633350     0.02600
C2833       C  0.75644412  0.04074821  0.13549255     0.37300
C2834       C  0.89265243  0.09709421  0.11904146     0.37200
C2835       C  0.85103514  0.12938631  0.14702962     0.35700
C2836       C  0.78867997  0.02343801  0.10255665     0.35700
N2837       N  0.86293660  0.15187493  0.15567634    -0.39200
N2838       N  0.77422468  0.00333807  0.09347138    -0.39200
N2839       N  0.92220333  0.10500581  0.11700276    -0.38600
N2840       N  0.73210407  0.02416056  0.14026980    -0.38600
C2841       C  0.99367155  0.79203120  0.04615506    -0.05300
C2842       C  0.03100718  0.79339735  0.04361718    -0.02400
C2843       C  0.05138831  0.76138010  0.04230295     0.02600
C2844       C  0.03516305  0.72703549  0.04371325    -0.05300
C2845       C  0.99752250  0.72570738  0.04496879    -0.02400
C2846       C  0.97709696  0.75777806  0.04644880     0.02600
C2847       C  0.04898925  0.82782886  0.04374177     0.37300
C2848       C  0.97964865  0.69130805  0.04514241     0.37200
C2849       C  0.93880778  0.75557361  0.04869466     0.35700
C2850       C  0.08949820  0.76380546  0.03946923     0.35700
N2851       N  0.90824489  0.75416300  0.05055209    -0.39200
N2852       N  0.11988248  0.76568753  0.03704670    -0.39200
N2853       N  0.96507678  0.66396317  0.04492057    -0.38600
N2854       N  0.06336569  0.85529792  0.04397748    -0.38600
C2855       C  0.55153615  0.51157515  0.00454652    -0.05300
C2856       C  0.52407332  0.53209022  0.01245155    -0.02400
C2857       C  0.48955054  0.53319360  0.00495935     0.02600
C2858       C  0.48193441  0.51551426  0.98875664    -0.05300
C2859       C  0.50990568  0.49611573  0.98054700    -0.02400
C2860       C  0.54441501  0.49549465  0.98791395     0.02600
C2861       C  0.53136398  0.55366260  0.02789184     0.37300
C2862       C  0.50384986  0.47675150  0.96426604     0.37200
C2863       C  0.57307695  0.47927841  0.97773557     0.35700
C2864       C  0.46156034  0.55199895  0.01442283     0.35700
N2865       N  0.59580533  0.46641019  0.96954267    -0.39200
N2866       N  0.43941379  0.56694785  0.02211850    -0.39200
N2867       N  0.49934784  0.46095141  0.95134840    -0.38600
N2868       N  0.53706812  0.57183418  0.03989899    -0.38600
C2869       C  0.79060446  0.48926684  0.98033100    -0.05300
C2870       C  0.75385982  0.49348086  0.97753166    -0.02400
C2871       C  0.73060957  0.49867525  0.99204623     0.02600
C2872       C  0.74399409  0.49833878  0.00939336    -0.05300
C2873       C  0.78098065  0.49805933  0.01201893    -0.02400
C2874       C  0.80434281  0.49397142  0.99750786     0.02600
C2875       C  0.73986969  0.49123177  0.95981751     0.37300
C2876       C  0.79466498  0.49958630  0.02984457     0.37200
C2877       C  0.84228390  0.49152038  0.00054253     0.35700
C2878       C  0.69265091  0.50146053  0.98922560     0.35700
N2879       N  0.87251574  0.48965569  0.00304413    -0.39200
N2880       N  0.66239212  0.50395009  0.98696690    -0.39200
N2881       N  0.80523029  0.50071123  0.04411981    -0.38600
N2882       N  0.72849778  0.48958660  0.94571359    -0.38600
C2883       C  0.53515523  0.30027359  0.03491938    -0.05300
C2884       C  0.54949476  0.26520426  0.03466772    -0.02400
C2885       C  0.52712308  0.23446294  0.03631615     0.02600
C2886       C  0.48978485  0.23791919  0.03823453    -0.05300
C2887       C  0.47528337  0.27291117  0.03754813    -0.02400
C2888       C  0.49767782  0.30369833  0.03564813     0.02600
C2889       C  0.58771353  0.26078885  0.03323020     0.37300
C2890       C  0.43725381  0.27741711  0.03972629     0.37200
C2891       C  0.48224444  0.33919290  0.03598820     0.35700
C2892       C  0.54290696  0.19924946  0.03743062     0.35700
N2893       N  0.47000694  0.36757590  0.03630068    -0.39200
N2894       N  0.55534667  0.17104648  0.03831075    -0.39200
N2895       N  0.40690006  0.28098915  0.04160024    -0.38600
N2896       N  0.61819984  0.25729087  0.03199210    -0.38600
C2897       C  0.50506565  0.37364231  0.10658968    -0.05300
C2898       C  0.48172312  0.34537385  0.10253182    -0.02400
C2899       C  0.45019256  0.34159633  0.11235078     0.02600
C2900       C  0.44179493  0.36745166  0.12519589    -0.05300
C2901       C  0.46501095  0.39585434  0.12900749    -0.02400
C2902       C  0.49805153  0.39695363  0.12079490     0.02600
C2903       C  0.48963727  0.32108567  0.08815387     0.37300
C2904       C  0.45494546  0.42396743  0.14135405     0.37200
C2905       C  0.52470448  0.42237475  0.12680357     0.35700
C2906       C  0.42575225  0.31235153  0.10886317     0.35700
N2907       N  0.54580269  0.44243199  0.13184841    -0.39200
N2908       N  0.40610174  0.28916139  0.10606143    -0.39200
N2909       N  0.44676957  0.44667475  0.15093412    -0.38600
N2910       N  0.49610743  0.30141267  0.07680693    -0.38600
C2911       C  0.60922341  0.35508152  0.12853604    -0.05300
C2912       C  0.61445481  0.36534916  0.14633871    -0.02400
C2913       C  0.61832240  0.33838578  0.15929562     0.02600
C2914       C  0.62152967  0.30252324  0.15379190    -0.05300
C2915       C  0.61708878  0.29359081  0.13604219    -0.02400
C2916       C  0.60292797  0.31859549  0.12480710     0.02600
C2917       C  0.61827930  0.40257784  0.15126531     0.37300
C2918       C  0.63532211  0.26329206  0.12812638     0.37200
C2919       C  0.58729570  0.30588190  0.10854316     0.35700
C2920       C  0.62294940  0.34751361  0.17770301     0.35700
N2921       N  0.57469968  0.29376678  0.09601973    -0.39200
N2922       N  0.62668178  0.35473257  0.19241162    -0.39200
N2923       N  0.65123511  0.24109909  0.12095810    -0.38600
N2924       N  0.62149163  0.43210486  0.15561087    -0.38600
C2925       C  0.76687308  0.71993530  0.23967180    -0.05300
C2926       C  0.78078119  0.72795855  0.25653778    -0.02400
C2927       C  0.77773315  0.76274168  0.26377851     0.02600
C2928       C  0.75894354  0.79004282  0.25472863    -0.05300
C2929       C  0.74282810  0.78102798  0.23842538    -0.02400
C2930       C  0.74529930  0.74594342  0.23147208     0.02600
C2931       C  0.79725786  0.69991036  0.26692595     0.37300
C2932       C  0.72450584  0.80805578  0.22821428     0.37200
C2933       C  0.72453557  0.73671407  0.21610090     0.35700
C2934       C  0.79405956  0.76963163  0.28070694     0.35700
N2935       N  0.70730788  0.72931540  0.20407364    -0.39200
N2936       N  0.80731298  0.77459440  0.29419899    -0.39200
N2937       N  0.70995347  0.82940508  0.21992385    -0.38600
N2938       N  0.81027589  0.67758845  0.27524097    -0.38600
C2939       C  0.79894392  0.53191113  0.22763790    -0.05300
C2940       C  0.78951434  0.54531481  0.24458910    -0.02400
C2941       C  0.78865479  0.52236556  0.25951287     0.02600
C2942       C  0.79612821  0.48561871  0.25767236    -0.05300
C2943       C  0.80297810  0.47177983  0.24059432    -0.02400
C2944       C  0.80465475  0.49477701  0.22570851     0.02600
C2945       C  0.78306724  0.58319973  0.24707474     0.37300
C2946       C  0.81039890  0.43404296  0.23841049     0.37200
C2947       C  0.81308805  0.48031564  0.20841422     0.35700
C2948       C  0.78195844  0.53682336  0.27699412     0.35700
N2949       N  0.81983035  0.46879358  0.19461404    -0.39200
N2950       N  0.77681413  0.54814467  0.29099624    -0.39200
N2951       N  0.81634663  0.40394963  0.23646289    -0.38600
N2952       N  0.77765026  0.61331805  0.24934108    -0.38600
C2953       C  0.98606142  0.73944295  0.21826514    -0.05300
C2954       C  0.01943601  0.72189002  0.21765191    -0.02400
C2955       C  0.05186360  0.74170767  0.21790232     0.02600
C2956       C  0.05164287  0.77959190  0.21835356    -0.05300
C2957       C  0.01838853  0.79702411  0.22014481    -0.02400
C2958       C  0.98595066  0.77712733  0.22036317     0.02600
C2959       C  0.02034990  0.68330721  0.21554486     0.37300
C2960       C  0.01754347  0.83582808  0.22063067     0.37200
C2961       C  0.95225676  0.79576427  0.22127004     0.35700
C2962       C  0.08552449  0.72317630  0.21617948     0.35700
N2963       N  0.92532713  0.81059017  0.22204217    -0.39200
N2964       N  0.11240377  0.70841459  0.21479736    -0.39200
N2965       N  0.01709885  0.86681882  0.22094416    -0.38600
N2966       N  0.02101230  0.65252370  0.21379689    -0.38600
C2967       C  0.93113061  0.69294836  0.11142825    -0.05300
C2968       C  0.92715767  0.66615336  0.09845104    -0.02400
C2969       C  0.95765145  0.65071968  0.09090400     0.02600
C2970       C  0.99148729  0.66456450  0.09513354    -0.05300
C2971       C  0.99372239  0.69783215  0.10404082    -0.02400
C2972       C  0.96319262  0.71246790  0.11190777     0.02600
C2973       C  0.89235845  0.65246478  0.09379017     0.37300
C2974       C  0.02769033  0.71528671  0.10636411     0.37200
C2975       C  0.96532882  0.74548667  0.12193656     0.35700
C2976       C  0.95395943  0.62013772  0.07927488     0.35700
N2977       N  0.96708361  0.77184901  0.12989050    -0.39200
N2978       N  0.95059828  0.59580817  0.06999306    -0.39200
N2979       N  0.05571350  0.72778599  0.10748054    -0.38600
N2980       N  0.86490467  0.64123257  0.08976052    -0.38600
C2981       C  0.91779910  0.87372599  0.14671154    -0.05300
C2982       C  0.89046935  0.87651905  0.15956324    -0.02400
C2983       C  0.88934782  0.85123386  0.17324723     0.02600
C2984       C  0.91318308  0.82224876  0.17253815    -0.05300
C2985       C  0.94624803  0.82784777  0.16411280    -0.02400
C2986       C  0.94854833  0.85395549  0.15081897     0.02600
C2987       C  0.86255778  0.90298553  0.15823627     0.37300
C2988       C  0.97662357  0.80615388  0.16857580     0.37200
C2989       C  0.98161763  0.86015862  0.14124260     0.35700
C2990       C  0.86240290  0.85309845  0.18703475     0.35700
N2991       N  0.00803342  0.86569076  0.13372441    -0.39200
N2992       N  0.84113182  0.85496445  0.19814334    -0.39200
N2993       N  0.00090944  0.78897294  0.17232660    -0.38600
N2994       N  0.84020858  0.92411690  0.15745008    -0.38600
C2995       C  0.73485544  0.58817313  0.13439577    -0.05300
C2996       C  0.70115738  0.60121797  0.12926829    -0.02400
C2997       C  0.68277065  0.58594719  0.11456169     0.02600
C2998       C  0.69887407  0.55948272  0.10363622    -0.05300
C2999       C  0.73277365  0.54692859  0.10869725    -0.02400
C3000       C  0.74998739  0.56034799  0.12396701     0.02600
C3001       C  0.68570799  0.63091813  0.13884962     0.37300
C3002       C  0.74939377  0.51828895  0.09868350     0.37200
C3003       C  0.78358515  0.54474396  0.12918727     0.35700
C3004       C  0.64648617  0.59636959  0.11108318     0.35700
N3005       N  0.81024942  0.53212072  0.13337243    -0.39200
N3006       N  0.61732029  0.60423182  0.10838094    -0.39200
N3007       N  0.76287117  0.49541646  0.09082958    -0.38600
N3008       N  0.67346115  0.65484394  0.14642849    -0.38600
C3009       C  0.77135074  0.22870019  0.75692841    -0.05300
C3010       C  0.78829428  0.23688396  0.74050504    -0.02400
C3011       C  0.78862100  0.27227236  0.73368042     0.02600
C3012       C  0.76755485  0.29928554  0.74152912    -0.05300
C3013       C  0.75119304  0.29150128  0.75811997    -0.02400
C3014       C  0.75275513  0.25668641  0.76565616     0.02600
C3015       C  0.80454846  0.20864831  0.73006885     0.37300
C3016       C  0.73432550  0.31997850  0.76813238     0.37200
C3017       C  0.73512632  0.25029150  0.78251898     0.35700
C3018       C  0.81256276  0.28107597  0.71919031     0.35700
N3019       N  0.72089039  0.24547400  0.79594507    -0.39200
N3020       N  0.83262774  0.28822710  0.70803030    -0.39200
N3021       N  0.72118877  0.34243847  0.77640880    -0.38600
N3022       N  0.81714991  0.18599797  0.72170643    -0.38600
C3023       C  0.73606392  0.52816506  0.76527539    -0.05300
C3024       C  0.72209229  0.49300608  0.76623211    -0.02400
C3025       C  0.72241943  0.47084860  0.75122535     0.02600
C3026       C  0.73590630  0.48370750  0.73491555    -0.05300
C3027       C  0.75150542  0.51798441  0.73401301    -0.02400
C3028       C  0.75181301  0.54019972  0.74914819     0.02600
C3029       C  0.70603899  0.47976382  0.78252623     0.37300
C3030       C  0.76580122  0.53078839  0.71728486     0.37200
C3031       C  0.76602962  0.57626374  0.74760164     0.35700
C3032       C  0.70779273  0.43495189  0.75266086     0.35700
N3033       N  0.77746920  0.60497777  0.74620773    -0.39200
N3034       N  0.69589807  0.40652439  0.75439459    -0.39200
N3035       N  0.77707083  0.54071335  0.70385781    -0.38600
N3036       N  0.69273453  0.46906008  0.79534486    -0.38600
C3037       C  0.99473309  0.51091766  0.50731410    -0.05300
C3038       C  0.01997264  0.48890704  0.51587521    -0.02400
C3039       C  0.05523392  0.48527513  0.50899755     0.02600
C3040       C  0.06596572  0.50215503  0.49294183    -0.05300
C3041       C  0.04060874  0.52391080  0.48436784    -0.02400
C3042       C  0.00504556  0.52599553  0.49071299     0.02600
C3043       C  0.00936073  0.46780230  0.53112859     0.37300
C3044       C  0.05066470  0.54483100  0.46893171     0.37200
C3045       C  0.97880390  0.54274506  0.47947756     0.35700
C3046       C  0.08112255  0.46531971  0.51903525     0.35700
N3047       N  0.95793402  0.55594154  0.47046425    -0.39200
N3048       N  0.10187446  0.44981160  0.52718095    -0.39200
N3049       N  0.05843915  0.56198533  0.45673669    -0.38600
N3050       N  0.00091668  0.45010267  0.54302703    -0.38600
C3051       C  0.74917499  0.53920648  0.48729269    -0.05300
C3052       C  0.73741231  0.54457588  0.50490998    -0.02400
C3053       C  0.76203664  0.54585795  0.51887908     0.02600
C3054       C  0.79861815  0.54055720  0.51557577    -0.05300
C3055       C  0.80979638  0.53059464  0.49835353    -0.02400
C3056       C  0.78533250  0.53079514  0.48420064     0.02600
C3057       C  0.70013394  0.55114843  0.50865057     0.37300
C3058       C  0.84688421  0.52229114  0.49494213     0.37200
C3059       C  0.79774836  0.52397236  0.46635276     0.35700
C3060       C  0.74992644  0.55405177  0.53666102     0.35700
N3061       N  0.80801347  0.51846411  0.45216325    -0.39200
N3062       N  0.74037927  0.56063865  0.55085556    -0.39200
N3063       N  0.87638037  0.51527584  0.49220818    -0.38600
N3064       N  0.67049813  0.55632561  0.51196452    -0.38600
C3065       C  0.85126451  0.49302311  0.61152642    -0.05300
C3066       C  0.86133662  0.45710439  0.61513803    -0.02400
C3067       C  0.84564791  0.43722523  0.62962194     0.02600
C3068       C  0.82111262  0.45314819  0.64173804    -0.05300
C3069       C  0.81164083  0.48914386  0.63825795    -0.02400
C3070       C  0.82529269  0.50815191  0.62321431     0.02600
C3071       C  0.88778525  0.44031152  0.60392922     0.37300
C3072       C  0.78570797  0.50621655  0.64977604     0.37200
C3073       C  0.80999824  0.54270179  0.61902272     0.35700
C3074       C  0.85367081  0.39955436  0.63166111     0.35700
N3075       N  0.79711736  0.56990460  0.61561028    -0.39200
N3076       N  0.85983148  0.36938432  0.63326702    -0.39200
N3077       N  0.76510216  0.51978379  0.65901165    -0.38600
N3078       N  0.90895208  0.42675699  0.59501021    -0.38600
C3079       C  0.77012408  0.71711411  0.75533400    -0.05300
C3080       C  0.78955953  0.74457935  0.76378131    -0.02400
C3081       C  0.79102101  0.77963163  0.75659304     0.02600
C3082       C  0.77709841  0.78719856  0.73959316    -0.05300
C3083       C  0.76036613  0.75873554  0.73039962    -0.02400
C3084       C  0.75683105  0.72424538  0.73819900     0.02600
C3085       C  0.80938725  0.73681392  0.77962818     0.37300
C3086       C  0.74774498  0.76410781  0.71257627     0.37200
C3087       C  0.74083413  0.69545989  0.72809823     0.35700
C3088       C  0.80682721  0.80801476  0.76703105     0.35700
N3089       N  0.72821241  0.67239539  0.72008656    -0.39200
N3090       N  0.81943707  0.83062023  0.77535233    -0.39200
N3091       N  0.73772613  0.76809266  0.69832358    -0.38600
N3092       N  0.82586224  0.73037714  0.79203263    -0.38600
C3093       C  0.76545323  0.98216700  0.73624144    -0.05300
C3094       C  0.76295262  0.97313790  0.75430920    -0.02400
C3095       C  0.76361826  0.00035659  0.76729836     0.02600
C3096       C  0.76615280  0.03679785  0.76227018    -0.05300
C3097       C  0.76305924  0.04580160  0.74423489    -0.02400
C3098       C  0.76294311  0.01856878  0.73125296     0.02600
C3099       C  0.76418569  0.93572806  0.75949668     0.37300
C3100       C  0.76416846  0.08314148  0.73890988     0.37200
C3101       C  0.76433538  0.02811697  0.71269131     0.35700
C3102       C  0.76533178  0.99072652  0.78580813     0.35700
N3103       N  0.76559827  0.03588141  0.69790262    -0.39200
N3104       N  0.76676089  0.98280875  0.80055487    -0.39200
N3105       N  0.76510863  0.11288776  0.73458891    -0.38600
N3106       N  0.76530852  0.90582853  0.76351452    -0.38600
C3107       C  0.94117244  0.76683893  0.64479298    -0.05300
C3108       C  0.93286453  0.77456587  0.62716673    -0.02400
C3109       C  0.92861463  0.74651265  0.61523730     0.02600
C3110       C  0.93943205  0.71158837  0.61985655    -0.05300
C3111       C  0.95264398  0.70472052  0.63686721    -0.02400
C3112       C  0.95140466  0.73195234  0.64967758     0.02600
C3113       C  0.92385631  0.81065233  0.62177634     0.37300
C3114       C  0.96688859  0.66990527  0.64130057     0.37200
C3115       C  0.95805570  0.72356037  0.66802483     0.35700
C3116       C  0.90868446  0.75303094  0.59922638     0.35700
N3117       N  0.96270599  0.71644202  0.68268251    -0.39200
N3118       N  0.89158335  0.75877030  0.58694899    -0.39200
N3119       N  0.97878646  0.64240553  0.64500342    -0.38600
N3120       N  0.91608312  0.83898026  0.61708260    -0.38600
C3121       C  0.48741451  0.00541210  0.49070541    -0.05300
C3122       C  0.49392305  0.99179184  0.50790184    -0.02400
C3123       C  0.52892687  0.98920445  0.51445080     0.02600
C3124       C  0.55811561  0.00424416  0.50496902    -0.05300
C3125       C  0.55149937  0.01903245  0.48803519    -0.02400
C3126       C  0.51658104  0.02013339  0.48110674     0.02600
C3127       C  0.46437698  0.98104451  0.51929740     0.37300
C3128       C  0.58095481  0.03231959  0.47732397     0.37200
C3129       C  0.51103628  0.03720465  0.46417197     0.35700
C3130       C  0.53430063  0.97048001  0.53098720     0.35700
N3131       N  0.50683919  0.05137636  0.45076816    -0.39200
N3132       N  0.53800515  0.95495505  0.54406541    -0.39200
N3133       N  0.60429729  0.04280475  0.46864563    -0.38600
N3134       N  0.44093675  0.97254618  0.52843240    -0.38600
C3135       C  0.74825965  0.01069271  0.51197026    -0.05300
C3136       C  0.73599177  0.00424187  0.49466652    -0.02400
C3137       C  0.76010897  0.00518154  0.48011315     0.02600
C3138       C  0.79681794  0.01088079  0.48280746    -0.05300
C3139       C  0.80946545  0.01087626  0.50027217    -0.02400
C3140       C  0.78536454  0.01196388  0.51477480     0.02600
C3141       C  0.69830050  0.99912626  0.49170915     0.37300
C3142       C  0.84739444  0.01070567  0.50322058     0.37200
C3143       C  0.79868981  0.01571337  0.53255966     0.35700
C3144       C  0.74712404  0.00130401  0.46229514     0.35700
N3145       N  0.80928786  0.01884446  0.54675499    -0.39200
N3146       N  0.73674186  0.99788960  0.44807686    -0.39200
N3147       N  0.87771862  0.00959615  0.50546943    -0.38600
N3148       N  0.66820828  0.99472649  0.48948213    -0.38600
C3149       C  0.65169243  0.20759930  0.65739200    -0.05300
C3150       C  0.61658190  0.20157523  0.65166329    -0.02400
C3151       C  0.60995935  0.17274498  0.64042465     0.02600
C3152       C  0.63839834  0.15071124  0.63522422    -0.05300
C3153       C  0.66985513  0.15048346  0.64515386    -0.02400
C3154       C  0.67606859  0.17873616  0.65682169     0.02600
C3155       C  0.58797308  0.22531778  0.65681483     0.37300
C3156       C  0.69692379  0.12329906  0.64258782     0.37200
C3157       C  0.70776972  0.17816583  0.66758468     0.35700
C3158       C  0.57460793  0.16613576  0.63370172     0.35700
N3159       N  0.73307584  0.17695040  0.67610305    -0.39200
N3160       N  0.54657274  0.16004337  0.62832019    -0.39200
N3161       N  0.71880932  0.10183649  0.64089868    -0.38600
N3162       N  0.56598791  0.24500319  0.66125434    -0.38600
C3163       C  0.73737466  0.93390414  0.63790669    -0.05300
C3164       C  0.75200571  0.95034128  0.62210453    -0.02400
C3165       C  0.73113816  0.95715894  0.60676392     0.02600
C3166       C  0.69395587  0.95243583  0.60692222    -0.05300
C3167       C  0.67894526  0.93629150  0.62244193    -0.02400
C3168       C  0.70027690  0.92633615  0.63739832     0.02600
C3169       C  0.78831983  0.96341154  0.62145263     0.37300
C3170       C  0.64105106  0.92930978  0.62294877     0.37200
C3171       C  0.68323037  0.91026856  0.65270684     0.35700
C3172       C  0.74814098  0.97085812  0.59081199     0.35700
N3173       N  0.66938613  0.89750942  0.66491760    -0.39200
N3174       N  0.76180808  0.98129954  0.57803391    -0.39200
N3175       N  0.61081889  0.92341330  0.62334670    -0.38600
N3176       N  0.81679838  0.97519190  0.62070902    -0.38600
C3177       C  0.25950072  0.71097976  0.74042109    -0.05300
C3178       C  0.28266817  0.73648763  0.73244355    -0.02400
C3179       C  0.28717650  0.77120523  0.73976488     0.02600
C3180       C  0.27080824  0.78099926  0.75616223    -0.05300
C3181       C  0.24697601  0.75580541  0.76394884    -0.02400
C3182       C  0.24200138  0.72117345  0.75643919     0.02600
C3183       C  0.30268894  0.72745696  0.71660737     0.37300
C3184       C  0.22649245  0.76539188  0.77954613     0.37200
C3185       C  0.21955929  0.69558592  0.76583374     0.35700
C3186       C  0.30833077  0.79705621  0.72977355     0.35700
N3187       N  0.20172454  0.67536536  0.77347400    -0.39200
N3188       N  0.32537601  0.81732370  0.72172864    -0.39200
N3189       N  0.20951926  0.77289495  0.79181400    -0.38600
N3190       N  0.31950054  0.72068406  0.70418582    -0.38600
C3191       C  0.25398796  0.52318965  0.73429486    -0.05300
C3192       C  0.25748782  0.53553649  0.75177956    -0.02400
C3193       C  0.26049593  0.51072755  0.76577114     0.02600
C3194       C  0.26166548  0.47362487  0.76221632    -0.05300
C3195       C  0.26394094  0.46193354  0.74451719    -0.02400
C3196       C  0.25937255  0.48660352  0.73056501     0.02600
C3197       C  0.25550840  0.57360967  0.75542392     0.37300
C3198       C  0.26751053  0.42405863  0.74074782     0.37200
C3199       C  0.25836370  0.47418534  0.71245710     0.35700
C3200       C  0.25938397  0.52305246  0.78390174     0.35700
N3201       N  0.25757835  0.46429774  0.69799931    -0.39200
N3202       N  0.25827872  0.53285347  0.79837721    -0.39200
N3203       N  0.27054317  0.39383798  0.73777112    -0.38600
N3204       N  0.25415670  0.60405007  0.75819760    -0.38600
C3205       C  0.99195454  0.78367641  0.70741327    -0.05300
C3206       C  0.00079396  0.75933351  0.72117642    -0.02400
C3207       C  0.03187781  0.73692363  0.71989920     0.02600
C3208       C  0.05344416  0.73651871  0.70435341    -0.05300
C3209       C  0.04347106  0.75988102  0.69052518    -0.02400
C3210       C  0.01546144  0.78469348  0.69251098     0.02600
C3211       C  0.97883420  0.75825958  0.73696819     0.37300
C3212       C  0.06046330  0.75811086  0.67332407     0.37200
C3213       C  0.01203764  0.81144363  0.67863539     0.35700
C3214       C  0.04066440  0.71306903  0.73426056     0.35700
N3215       N  0.01148720  0.83260520  0.66746007    -0.39200
N3216       N  0.04778986  0.69399096  0.74573239    -0.39200
N3217       N  0.07091022  0.75825722  0.65894346    -0.38600
N3218       N  0.96135499  0.75743960  0.74963279    -0.38600
C3219       C  0.11015640  0.64356952  0.61220576    -0.05300
C3220       C  0.12397432  0.63578826  0.59506469    -0.02400
C3221       C  0.10616982  0.64873413  0.58011883     0.02600
C3222       C  0.07505633  0.66888521  0.58233105    -0.05300
C3223       C  0.06911313  0.68581990  0.59847142    -0.02400
C3224       C  0.08324264  0.67034481  0.61370031     0.02600
C3225       C  0.15509850  0.61364538  0.59236646     0.37300
C3226       C  0.04435891  0.71550798  0.59961239     0.37200
C3227       C  0.06784802  0.68118664  0.63043325     0.35700
C3228       C  0.11711022  0.63834918  0.56246521     0.35700
N3229       N  0.05395397  0.69009243  0.64337340    -0.39200
N3230       N  0.12612440  0.63013428  0.54839879    -0.39200
N3231       N  0.02499555  0.73945162  0.60058295    -0.38600
N3232       N  0.18010988  0.59650360  0.58962998    -0.38600
C3233       C  0.48223218  0.50023714  0.50421861    -0.05300
C3234       C  0.50648855  0.52279214  0.51326452    -0.02400
C3235       C  0.54191441  0.52727207  0.50706080     0.02600
C3236       C  0.55315118  0.51326766  0.49048888    -0.05300
C3237       C  0.52916449  0.49046449  0.48150779    -0.02400
C3238       C  0.49397123  0.48480171  0.48802303     0.02600
C3239       C  0.49590578  0.54120427  0.52932581     0.37300
C3240       C  0.54126452  0.47012930  0.46633905     0.37200
C3241       C  0.46984222  0.46271732  0.47786568     0.35700
C3242       C  0.56766678  0.54391126  0.51866522     0.35700
N3243       N  0.45073485  0.44495430  0.46977100    -0.39200
N3244       N  0.58840453  0.55665652  0.52794716    -0.39200
N3245       N  0.55104065  0.45290343  0.45458092    -0.38600
N3246       N  0.48794406  0.55632402  0.54208121    -0.38600
C3247       C  0.24759630  0.46430600  0.48561513    -0.05300
C3248       C  0.28277476  0.47708971  0.48326273    -0.02400
C3249       C  0.30741754  0.47585738  0.49737925     0.02600
C3250       C  0.29753913  0.46065462  0.51391216    -0.05300
C3251       C  0.26191189  0.44891852  0.51634317    -0.02400
C3252       C  0.23724186  0.45085997  0.50236369     0.02600
C3253       C  0.29429410  0.48916481  0.46592493     0.37300
C3254       C  0.25056110  0.43406694  0.53320401     0.37200
C3255       C  0.20137911  0.43726655  0.50498265     0.35700
C3256       C  0.34364491  0.48809323  0.49445918     0.35700
N3257       N  0.17286152  0.42618790  0.50706430    -0.39200
N3258       N  0.37253899  0.49794584  0.49212590    -0.16800
N3259       N  0.24123596  0.42206594  0.54657630    -0.38600
N3260       N  0.30347459  0.49841296  0.45201117    -0.38600
C3261       C  0.51316760  0.28315383  0.53104085    -0.05300
C3262       C  0.49600576  0.24937312  0.52971206    -0.02400
C3263       C  0.51557883  0.21682258  0.53087176     0.02600
C3264       C  0.55279906  0.21728384  0.53358806    -0.05300
C3265       C  0.57032117  0.25109178  0.53322722    -0.02400
C3266       C  0.55072942  0.28361134  0.53183236     0.02600
C3267       C  0.45772056  0.24816206  0.52780597     0.37300
C3268       C  0.60860226  0.25257804  0.53505236     0.37200
C3269       C  0.56900889  0.31783242  0.53274334     0.35700
C3270       C  0.49691170  0.18280280  0.53052799     0.35700
N3271       N  0.58336201  0.34526927  0.53349882    -0.39200
N3272       N  0.48209382  0.15558573  0.53019521    -0.39200
N3273       N  0.63917238  0.25383407  0.53653013    -0.38600
N3274       N  0.42717941  0.24716970  0.52615539    -0.38600
C3275       C  0.58294693  0.36298135  0.57905921    -0.05300
C3276       C  0.61059311  0.38838256  0.58036913    -0.02400
C3277       C  0.63532241  0.38492131  0.59397751     0.02600
C3278       C  0.63354979  0.35442406  0.60518526    -0.05300
C3279       C  0.61326079  0.32447628  0.59976532    -0.02400
C3280       C  0.58870088  0.32860485  0.58607206     0.02600
C3281       C  0.61264440  0.41862311  0.56832117     0.37300
C3282       C  0.61666761  0.29012977  0.60855165     0.37200
C3283       C  0.56976987  0.29804314  0.57909543     0.35700
C3284       C  0.65997152  0.41419112  0.59703601     0.35700
N3285       N  0.55520364  0.27364168  0.57313141    -0.39200
N3286       N  0.67939413  0.43788775  0.59914461    -0.39200
N3287       N  0.61926741  0.26275426  0.61560168    -0.38600
N3288       N  0.61466560  0.44264071  0.55867782    -0.38600
C3289       C  0.34336922  0.53487126  0.60733044    -0.05300
C3290       C  0.31613272  0.51778456  0.61747448    -0.02400
C3291       C  0.30288763  0.53269580  0.63348919     0.02600
C3292       C  0.31258445  0.56763133  0.63900509    -0.05300
C3293       C  0.33778735  0.58625843  0.62817587    -0.02400
C3294       C  0.35417529  0.56949672  0.61300517     0.02600
C3295       C  0.30085421  0.48449568  0.61109983     0.37300
C3296       C  0.34658920  0.62291750  0.63258535     0.37200
C3297       C  0.38184775  0.58807354  0.60319972     0.35700
C3298       C  0.27854709  0.51168313  0.64436181     0.35700
N3299       N  0.40388701  0.60316118  0.59537424    -0.39200
N3300       N  0.25975466  0.49431965  0.65307188    -0.39200
N3301       N  0.35352859  0.65225137  0.63613412    -0.38600
N3302       N  0.28830899  0.45830655  0.60583210    -0.38600
C3303       C  0.27484959  0.28855759  0.75310203    -0.05300
C3304       C  0.29519075  0.26104985  0.76098360    -0.02400
C3305       C  0.29816297  0.22690244  0.75294462     0.02600
C3306       C  0.28394159  0.21998509  0.73592117    -0.05300
C3307       C  0.26332760  0.24731504  0.72811085    -0.02400
C3308       C  0.25930591  0.28123622  0.73641877     0.02600
C3309       C  0.31322573  0.26707175  0.77757022     0.37300
C3310       C  0.24524422  0.24073465  0.71164884     0.37200
C3311       C  0.23951159  0.30891226  0.72736283     0.35700
C3312       C  0.31465153  0.19828914  0.76292203     0.35700
N3313       N  0.22366194  0.33090394  0.72013191    -0.39200
N3314       N  0.32768966  0.17591440  0.77118693    -0.39200
N3315       N  0.23000254  0.23589855  0.69868647    -0.38600
N3316       N  0.32819055  0.27125563  0.79067482    -0.38600
C3317       C  0.29474149  0.02277013  0.73206971    -0.05300
C3318       C  0.29022096  0.98546133  0.72982362    -0.02400
C3319       C  0.28947848  0.96225886  0.74465466     0.02600
C3320       C  0.29327874  0.97619893  0.76190958    -0.05300
C3321       C  0.29523820  0.01363149  0.76421115    -0.02400
C3322       C  0.29619151  0.03676995  0.74940113     0.02600
C3323       C  0.28821093  0.97079063  0.71215247     0.37300
C3324       C  0.29807475  0.02816240  0.78188942     0.37200
C3325       C  0.30217137  0.07474235  0.75201641     0.35700
C3326       C  0.28804457  0.92380104  0.74199451     0.35700
N3327       N  0.30727981  0.10497835  0.75418923    -0.39200
N3328       N  0.28707359  0.89313996  0.73980879    -0.39200
N3329       N  0.30032023  0.03954138  0.79603176    -0.38600
N3330       N  0.28658844  0.95906087  0.69805531    -0.38600
C3331       C  0.49899620  0.22361294  0.70445915    -0.05300
C3332       C  0.49628578  0.26126199  0.70669614    -0.02400
C3333       C  0.52724107  0.28368473  0.70650542     0.02600
C3334       C  0.56189760  0.26893681  0.70534648    -0.05300
C3335       C  0.56473719  0.23119709  0.70435448    -0.02400
C3336       C  0.53381542  0.20896611  0.70336886     0.02600
C3337       C  0.46143677  0.27729551  0.70825203     0.37300
C3338       C  0.59979448  0.21534663  0.70303973     0.37200
C3339       C  0.53801208  0.17084965  0.70048745     0.35700
C3340       C  0.52343829  0.32231812  0.70660975     0.35700
N3341       N  0.54142112  0.14047664  0.69799580    -0.39200
N3342       N  0.52070682  0.35319043  0.70651564    -0.39200
N3343       N  0.62786887  0.20290755  0.70201154    -0.38600
N3344       N  0.43358665  0.29001456  0.70976493    -0.38600
C3345       C  0.44843112  0.34201919  0.63582785    -0.05300
C3346       C  0.42326173  0.34467496  0.64969925    -0.02400
C3347       C  0.41722720  0.31463598  0.66043396     0.02600
C3348       C  0.43477546  0.28229270  0.65629640    -0.05300
C3349       C  0.46689160  0.28390139  0.64648729    -0.02400
C3350       C  0.47446491  0.31497603  0.63674290     0.02600
C3351       C  0.40184434  0.37651723  0.65218878     0.37300
C3352       C  0.48878641  0.25246360  0.64393279     0.37200
C3353       C  0.50706875  0.31769725  0.62644990     0.35700
C3354       C  0.39219744  0.31661980  0.67508829     0.35700
N3355       N  0.53327301  0.31982721  0.61838508    -0.39200
N3356       N  0.37268653  0.31900394  0.68693816    -0.39200
N3357       N  0.50514808  0.22676052  0.64147882    -0.38600
N3358       N  0.38461164  0.40177976  0.65433826    -0.38600
C3359       C  0.42307371  0.15948490  0.60425084    -0.05300
C3360       C  0.42288579  0.13405374  0.59062626    -0.02400
C3361       C  0.45344032  0.13059646  0.57994799     0.02600
C3362       C  0.48464408  0.14987511  0.58445134    -0.05300
C3363       C  0.48068498  0.18151140  0.59449359    -0.02400
C3364       C  0.44809450  0.18743487  0.60318399     0.02600
C3365       C  0.39259132  0.11079992  0.58790363     0.37300
C3366       C  0.51008041  0.20576258  0.59749849     0.37200
C3367       C  0.43918607  0.22174695  0.61072363     0.35700
C3368       C  0.45311435  0.10652036  0.56494856     0.35700
N3369       N  0.43043821  0.24946232  0.61592822    -0.39200
N3370       N  0.45215851  0.08770009  0.55284250    -0.39200
N3371       N  0.53363030  0.22482236  0.60038669    -0.38600
N3372       N  0.36879818  0.09204317  0.58501802    -0.38600
C3373       C  0.04956162  0.01376961  0.50180957    -0.05300
C3374       C  0.04433477  0.00023146  0.48447217    -0.02400
C3375       C  0.01002515  0.99876145  0.47699634     0.02600
C3376       C  0.98049277  0.01435005  0.48581231    -0.05300
C3377       C  0.98598250  0.02937353  0.50281267    -0.02400
C3378       C  0.02017551  0.02983331  0.51049901     0.02600
C3379       C  0.07454456  0.98888697  0.47378350     0.37300
C3380       C  0.95640254  0.04443815  0.51274034     0.37200
C3381       C  0.02491472  0.04824327  0.52714272     0.35700
C3382       C  0.00576104  0.98134909  0.46002406     0.35700
N3383       N  0.02857304  0.06360984  0.54024994    -0.39200
N3384       N  0.00266575  0.96702289  0.44658928    -0.39200
N3385       N  0.93331422  0.05671805  0.52090613    -0.38600
N3386       N  0.09843144  0.98001646  0.46510169    -0.38600
C3387       C  0.29182663  0.00270038  0.48616474    -0.05300
C3388       C  0.25548208  0.00736319  0.48253614    -0.02400
C3389       C  0.23071634  0.01012207  0.49657460     0.02600
C3390       C  0.24217311  0.00626060  0.51417929    -0.05300
C3391       C  0.27885109  0.00620133  0.51776425    -0.02400
C3392       C  0.30374126  0.00502842  0.50373354     0.02600
C3393       C  0.24342034  0.00687481  0.46442187     0.37300
C3394       C  0.29079083  0.00508654  0.53588037     0.37200
C3395       C  0.34139780  0.00257314  0.50743713     0.35700
C3396       C  0.19313039  0.01350815  0.49287431     0.35700
N3397       N  0.37145810  0.00063398  0.51033970    -0.39200
N3398       N  0.16313139  0.01646877  0.49002269    -0.39200
N3399       N  0.30044681  0.00424502  0.55032042    -0.38600
N3400       N  0.23376677  0.00638054  0.44997538    -0.38600
C3401       C  0.14317930  0.82483322  0.61702109    -0.05300
C3402       C  0.13764988  0.83164254  0.63518322    -0.02400
C3403       C  0.13901401  0.80314435  0.64729742     0.02600
C3404       C  0.14446567  0.76782767  0.64113414    -0.05300
C3405       C  0.15344531  0.76189928  0.62325551    -0.02400
C3406       C  0.15414829  0.79064545  0.61140818     0.02600
C3407       C  0.12988204  0.86750849  0.64147380     0.37300
C3408       C  0.16379194  0.72685271  0.61687388     0.37200
C3409       C  0.16824500  0.78546151  0.59365140     0.35700
C3410       C  0.13393824  0.81013871  0.66600992     0.35700
N3411       N  0.18021987  0.78121196  0.57968127    -0.39200
N3412       N  0.12989971  0.81581200  0.68090888    -0.39200
N3413       N  0.17266967  0.69984615  0.61084729    -0.38600
N3414       N  0.12392392  0.89604772  0.64663302    -0.38600
C3415       C  0.04358504  0.79789423  0.51633111    -0.05300
C3416       C  0.06280704  0.76527370  0.51589934    -0.02400
C3417       C  0.04488754  0.73166102  0.51521180     0.02600
C3418       C  0.00735358  0.72990443  0.51486427    -0.05300
C3419       C  0.98840595  0.76250910  0.51328695    -0.02400
C3420       C  0.00630505  0.79619891  0.51407951     0.02600
C3421       C  0.10114206  0.76621772  0.51765354     0.37300
C3422       C  0.94989867  0.76128265  0.51260926     0.37200
C3423       C  0.98587894  0.82901687  0.51442750     0.35700
C3424       C  0.06491104  0.69875773  0.51692530     0.35700
N3425       N  0.96945636  0.85515582  0.51476858    -0.39200
N3426       N  0.08084972  0.67249901  0.51839785    -0.39200
N3427       N  0.91916776  0.76011310  0.51213889    -0.38600
N3428       N  0.13173073  0.76692692  0.51911146    -0.38600
C3429       C  0.95280806  0.91591629  0.62408266    -0.05300
C3430       C  0.93653222  0.91439885  0.60729375    -0.02400
C3431       C  0.95423914  0.89771100  0.59307647     0.02600
C3432       C  0.98857666  0.88336823  0.59534346    -0.05300
C3433       C  0.00422912  0.88460041  0.61211440    -0.02400
C3434       C  0.98853084  0.90478529  0.62555334     0.02600
C3435       C  0.90174364  0.92954568  0.60428537     0.37300
C3436       C  0.03544518  0.86367837  0.61608992     0.37200
C3437       C  0.00960204  0.91409785  0.64084656     0.35700
C3438       C  0.93643005  0.89363561  0.57626824     0.35700
N3439       N  0.02723779  0.92153368  0.65271806    -0.39200
N3440       N  0.92219882  0.89015626  0.56291380    -0.39200
N3441       N  0.05942627  0.84594425  0.61965303    -0.38600
N3442       N  0.87423388  0.94157202  0.60117759    -0.38600
C3443       C  0.17956246  0.05071324  0.60867756    -0.05300
C3444       C  0.17338923  0.04439920  0.62723937    -0.02400
C3445       C  0.19525122  0.06013940  0.64062511     0.02600
C3446       C  0.22202384  0.08535425  0.63624091    -0.05300
C3447       C  0.22355031  0.09644208  0.61809723    -0.02400
C3448       C  0.20417436  0.07832000  0.60452059     0.02600
C3449       C  0.14374195  0.02211211  0.63293508     0.37300
C3450       C  0.24454679  0.12769775  0.61329145     0.37200
C3451       C  0.21091313  0.08749612  0.58620742     0.35700
C3452       C  0.19054501  0.04951325  0.65890316     0.35700
N3453       N  0.21664570  0.09499164  0.57162020    -0.39200
N3454       N  0.18652568  0.04093920  0.67347875    -0.39200
N3455       N  0.26078200  0.15297656  0.60940913    -0.38600
N3456       N  0.11995213  0.00482976  0.63779121    -0.38600
loop_ 
_geom_bond_atom_site_label_1 
_geom_bond_atom_site_label_2 
_geom_bond_distance 
_geom_bond_site_symmetry_2 
_ccdc_geom_bond_type 
Zr1           O2   2.438       .  S
Zr1           O3   2.441       .  S
Zr1           O4   2.606       .  S
Zr1           O7   2.520       .  S
Zr1           O9   2.381   1_545  S
Zr1          O10   2.436   1_545  S
Zr1          O11   2.400   1_545  S
Zr1          O12   2.416   1_545  S
O2           H58   0.990       .  S
O2           H66   0.991       .  S
O3           C23   1.284   1_545  A
O4           C25   1.320       .  A
O5          Zr15   2.409       .  S
O5           C24   1.272   1_565  A
O6          Zr14   2.378       .  S
O6           C25   1.273   1_565  A
O7           C24   1.300       .  A
O8          Zr16   2.426       .  S
O8           C23   1.283       .  A
O9          Zr14   2.393       .  S
O9          Zr16   2.382       .  S
O10         Zr15   2.415       .  S
O10         Zr16   2.361       .  S
O10          H45   0.964       .  S
O11         Zr14   2.402       .  S
O11         Zr31   2.413       .  S
O11          H48   0.966   1_565  S
O12         Zr15   2.430       .  S
O12         Zr31   2.344       .  S
Zr13         O38   2.439       .  S
Zr13         O32   2.432       .  S
Zr13         O40   2.410       .  S
Zr13         O28   2.414       .  S
Zr13         O19   2.408       .  S
Zr13         O20   2.410       .  S
Zr13         O21   2.382       .  S
Zr13         O22   2.380       .  S
Zr14         O33   2.435       .  S
Zr14         O26   2.433       .  S
Zr14         O27   2.402       .  S
Zr14         O20   2.394       .  S
Zr14         O21   2.378       .  S
Zr15         O17   2.435       .  S
Zr15         O39   2.435       .  S
Zr15         O41   2.518       .  S
Zr15         O19   2.377       .  S
Zr15         O22   2.358       .  S
Zr16         O42   2.437       .  S
Zr16         O43   2.438       .  S
Zr16         O18   2.438       .  S
Zr16         O19   2.412       .  S
Zr16         O20   2.385       .  S
O17          H54   0.990       .  S
O18          H49   0.990       .  S
O18          H63   0.990       .  S
O20          H46   0.964       .  S
O21         Zr31   2.381       .  S
O22         Zr31   2.401       .  S
O22          H47   0.966       .  S
C23        C3390   1.479   1_565  S
C24        C3373   1.515       .  S
C25        C3443   1.557       .  S
O26          H62   0.990       .  S
O27          C29   1.277       .  A
O28          C29   1.282       .  A
C29        C3401   1.469       .  S
O30         Zr31   2.437   1_545  S
O30          H59   0.990       .  S
Zr31         O34   2.435       .  S
Zr31         O35   2.436   1_455  S
Zr31         O36   2.388       .  S
O32          C37   1.279       .  A
O33          H50   0.989       .  S
O33          H65   0.990       .  S
O34          H51   0.990   1_455  S
O35          H55   0.990       .  S
O35          H64   0.990   1_655  S
O36          C37   1.265       .  A
C37        C3432   1.472   1_455  S
O38          H57   0.989       .  S
O38          H61   0.990       .  S
O39          H53   0.990       .  S
O39          H60   0.990       .  S
O40          C44   1.279       .  A
O41          C44   1.300       .  A
O42          H52   0.990       .  S
O43          H56   0.990       .  S
C44        C3415   1.512       .  S
Zr67         O68   2.437       .  S
Zr67         O69   2.482       .  S
Zr67         O70   2.604       .  S
Zr67         O73   2.538       .  S
Zr67         O75   2.398       .  S
Zr67         O76   2.431       .  S
Zr67         O77   2.419       .  S
Zr67         O78   2.409       .  S
O68         H124   0.990       .  S
O68         H132   0.990       .  S
O69          C89   1.293       .  A
O70          C91   1.317       .  A
O71         Zr81   2.410       .  S
O71          C90   1.278       .  A
O72         Zr80   2.393       .  S
O72          C91   1.272       .  A
O73          C90   1.306       .  A
O74         Zr82   2.427       .  S
O74          C89   1.282       .  A
O75         Zr80   2.396       .  S
O75         Zr82   2.389       .  S
O76         Zr81   2.400       .  S
O76         Zr82   2.376       .  S
O76         H111   0.964       .  S
O77         Zr80   2.416       .  S
O77         Zr97   2.399       .  S
O77         H114   0.965       .  S
O78         Zr81   2.429       .  S
O78         Zr97   2.360       .  S
Zr79        O104   2.435       .  S
Zr79         O98   2.416       .  S
Zr79        O106   2.425       .  S
Zr79         O94   2.421       .  S
Zr79         O85   2.405       .  S
Zr79         O86   2.410       .  S
Zr79         O87   2.369       .  S
Zr79         O88   2.377       .  S
Zr80         O99   2.440       .  S
Zr80         O92   2.436       .  S
Zr80         O93   2.444       .  S
Zr80         O86   2.388       .  S
Zr80         O87   2.373       .  S
Zr81         O83   2.436       .  S
Zr81        O105   2.435       .  S
Zr81        O107   2.538       .  S
Zr81         O85   2.376       .  S
Zr81         O88   2.336       .  S
Zr82        O108   2.436       .  S
Zr82        O109   2.436       .  S
Zr82         O84   2.439       .  S
Zr82         O85   2.417       .  S
Zr82         O86   2.413       .  S
O83         H120   0.990       .  S
O84         H115   0.990   1_545  S
O84         H129   0.990       .  S
O86         H112   0.966       .  S
O87         Zr97   2.352       .  S
O88         Zr97   2.383       .  S
O88         H113   0.963       .  S
C89        C3317   1.495       .  S
C90        C3306   1.523       .  S
C91        C3446   1.551       .  S
O92         H128   0.990       .  S
O93          C95   1.284       .  A
O94          C95   1.285       .  A
C95        C3359   1.479       .  S
O96         Zr97   2.436       .  S
O96         H125   0.990       .  S
Zr97        O100   2.434       .  S
Zr97        O101   2.432       .  S
Zr97        O102   2.413       .  S
O98         C103   1.281       .  A
O99         H116   0.990       .  S
O99         H131   0.989       .  S
O100        H117   0.990       .  S
O101        H121   0.990       .  S
O101        H130   0.989       .  S
O102        C103   1.284       .  A
C103       C3348   1.475       .  S
O104        H123   0.990       .  S
O104        H127   0.990       .  S
O105        H119   0.990       .  S
O105        H126   0.990       .  S
O106        C110   1.283       .  A
O107        C110   1.304       .  A
O108        H118   0.990       .  S
O109        H122   0.990       .  S
C110       C3331   1.531       .  S
Zr133       O134   2.438       .  S
Zr133       O135   2.479       .  S
Zr133       O136   2.498       .  S
Zr133       O139   2.586       .  S
Zr133       O141   2.417       .  S
Zr133       O142   2.392       .  S
Zr133       O143   2.461       .  S
Zr133       O144   2.419       .  S
O134        H190   0.990       .  S
O134        H198   0.989       .  S
O135        C155   1.292       .  A
O136        C157   1.297       .  A
O137       Zr147   2.371       .  S
O137        C156   1.272       .  A
O138       Zr146   2.438       .  S
O138        C157   1.280       .  A
O139        C156   1.314       .  A
O140       Zr148   2.432       .  S
O140        C155   1.284       .  A
O141       Zr146   2.425       .  S
O141       Zr148   2.365       .  S
O142       Zr147   2.405       .  S
O142       Zr148   2.389       .  S
O142        H177   0.966       .  S
O143       Zr146   2.433       .  S
O143       Zr163   2.340       .  S
O143        H180   0.960       .  S
O144       Zr147   2.398       .  S
O144       Zr163   2.408       .  S
Zr145       O170   2.439       .  S
Zr145       O164   2.425       .  S
Zr145       O172   2.409       .  S
Zr145       O160   2.405       .  S
Zr145       O151   2.401       .  S
Zr145       O152   2.400       .  S
Zr145       O153   2.368       .  S
Zr145       O154   2.383       .  S
Zr146       O165   2.436       .  S
Zr146       O158   2.434       .  S
Zr146       O159   2.530       .  S
Zr146       O152   2.387       .  S
Zr146       O153   2.361       .  S
Zr147       O149   2.435       .  S
Zr147       O171   2.433       .  S
Zr147       O173   2.414       .  S
Zr147       O151   2.383       .  S
Zr147       O154   2.377       .  S
Zr148       O174   2.435       .  S
Zr148       O175   2.436       .  S
Zr148       O150   2.438       .  S
Zr148       O151   2.411       .  S
Zr148       O152   2.400       .  S
O149        H186   0.990       .  S
O150        H181   0.990       .  S
O150        H195   0.990       .  S
O152        H178   0.966       .  S
O153       Zr163   2.377       .  S
O154       Zr163   2.341       .  S
O154        H179   0.964       .  S
C155       C3250   1.510       .  S
C156       C3289   1.535       .  S
C157       C3233   1.520       .  S
O158        H194   0.990       .  S
O159        C161   1.303       .  A
O160        C161   1.278       .  A
C161       C3261   1.514       .  S
O162       Zr163   2.437       .  S
O162        H191   0.990       .  S
Zr163       O166   2.437       .  S
Zr163       O167   2.440       .  S
Zr163       O168   2.411       .  S
O164        C169   1.283       .  A
O165        H182   0.989       .  S
O165        H197   0.988       .  S
O166        H183   0.989       .  S
O167        H187   0.990       .  S
O167        H196   0.990       .  S
O168        C169   1.281       .  A
C169       C3275   1.487       .  S
O170        H189   0.991       .  S
O170        H193   0.990       .  S
O171        H185   0.990       .  S
O171        H192   0.990       .  S
O172        C176   1.282       .  A
O173        C176   1.279       .  A
O174        H184   0.989       .  S
O175        H188   0.990       .  S
C176       C3345   1.477       .  S
Zr199       O200   2.436       .  S
Zr199       O201   2.429       .  S
Zr199       O202   2.520       .  S
Zr199       O205   2.594       .  S
Zr199       O207   2.422       .  S
Zr199       O208   2.403       .  S
Zr199       O209   2.448       .  S
Zr199       O210   2.392       .  S
O200        H256   0.990       .  S
O200        H264   0.990       .  S
O201        C221   1.282       .  A
O202        C223   1.301       .  A
O203       Zr213   2.372       .  S
O203        C222   1.271       .  A
O204       Zr212   2.411       .  S
O204        C223   1.275       .  A
O205        C222   1.316       .  A
O206       Zr214   2.442       .  S
O206        C221   1.285       .  A
O207       Zr212   2.426       .  S
O207       Zr214   2.364       .  S
O208       Zr213   2.404       .  S
O208       Zr214   2.382       .  S
O208        H243   0.967       .  S
O209       Zr212   2.440       .  S
O209       Zr229   2.334       .  S
O209        H246   0.964       .  S
O210       Zr213   2.414       .  S
O210       Zr229   2.372       .  S
Zr211       O236   2.448       .  S
Zr211       O230   2.454       .  S
Zr211       O238   2.414       .  S
Zr211       O226   2.415       .  S
Zr211       O217   2.406       .  S
Zr211       O218   2.404       .  S
Zr211       O219   2.375       .  S
Zr211       O220   2.390       .  S
Zr212       O231   2.437       .  S
Zr212       O224   2.435       .  S
Zr212       O225   2.536       .  S
Zr212       O218   2.376       .  S
Zr212       O219   2.352       .  S
Zr213       O215   2.437       .  S
Zr213       O237   2.438       .  S
Zr213       O239   2.440       .  S
Zr213       O217   2.375       .  S
Zr213       O220   2.381       .  S
Zr214       O240   2.437       .  S
Zr214       O241   2.436       .  S
Zr214       O216   2.436       .  S
Zr214       O217   2.412       .  S
Zr214       O218   2.417       .  S
O215        H252   0.990       .  S
O216        H247   0.991       .  S
O216        H261   0.990       .  S
O218        H244   0.967       .  S
O219       Zr229   2.398       .  S
O220       Zr229   2.355       .  S
O220        H245   0.960       .  S
C221       C3191   1.484       .  S
C222       C3292   1.526       .  S
C223       C3177   1.526       .  S
O224        H260   0.990       .  S
O225        C227   1.303       .  A
O226        C227   1.281       .  A
C227       C3208   1.532       .  S
O228       Zr229   2.432       .  S
O228        H257   0.991       .  S
Zr229       O232   2.437       .  S
Zr229       O233   2.437       .  S
Zr229       O234   2.372       .  S
O230        C235   1.283       .  A
O231        H248   0.990       .  S
O231        H263   0.990       .  S
O232        H249   0.990       .  S
O233        H253   0.990       .  S
O233        H262   0.990       .  S
O234        C235   1.265       .  A
C235       C3404   1.466       .  S
O236        H255   0.990       .  S
O236        H259   0.990       .  S
O237        H251   0.990       .  S
O237        H258   0.989       .  S
O238        C242   1.275       .  A
O239        C242   1.282       .  A
O240        H250   0.991       .  S
O241        H254   0.990       .  S
C242       C3219   1.492       .  S
Zr265       O266   2.435   1_545  S
Zr265       O267   2.466       .  S
Zr265       O268   2.499   1_545  S
Zr265       O271   2.587   1_545  S
Zr265       O273   2.419       .  S
Zr265       O274   2.395       .  S
Zr265       O275   2.454       .  S
Zr265       O276   2.410       .  S
O266        H322   0.990       .  S
O266        H330   0.990       .  S
O267        C287   1.290       .  A
O268        C289   1.296   1_565  A
O269       Zr279   2.398   1_565  S
O269        C288   1.268       .  A
O270       Zr278   2.427       .  S
O270        C289   1.277       .  A
O271        C288   1.311       .  A
O272       Zr280   2.432       .  S
O272        C287   1.284       .  A
O273       Zr278   2.417       .  S
O273       Zr280   2.371       .  S
O274       Zr279   2.400       .  S
O274       Zr280   2.383       .  S
O274        H309   0.965       .  S
O275       Zr278   2.426       .  S
O275       Zr295   2.349       .  S
O275        H312   0.959       .  S
O276       Zr279   2.390       .  S
O276       Zr295   2.393       .  S
Zr277       O302   2.438       .  S
Zr277       O296   2.437       .  S
Zr277       O304   2.420       .  S
Zr277       O292   2.437       .  S
Zr277       O283   2.410       .  S
Zr277       O284   2.397       .  S
Zr277       O285   2.365       .  S
Zr277       O286   2.393       .  S
Zr278       O297   2.435       .  S
Zr278       O290   2.437       .  S
Zr278       O291   2.509       .  S
Zr278       O284   2.380       .  S
Zr278       O285   2.364       .  S
Zr279       O281   2.438       .  S
Zr279       O303   2.436       .  S
Zr279       O305   2.384       .  S
Zr279       O283   2.399       .  S
Zr279       O286   2.394       .  S
Zr280       O306   2.435       .  S
Zr280       O307   2.436       .  S
Zr280       O282   2.438       .  S
Zr280       O283   2.403       .  S
Zr280       O284   2.404       .  S
O281        H318   0.991       .  S
O282        H313   0.990       .  S
O282        H327   0.990       .  S
O284        H310   0.966       .  S
O285       Zr295   2.381       .  S
O286       Zr295   2.351       .  S
O286        H311   0.965       .  S
C287       C3135   1.501       .  S
C288       C3166   1.546       .  S
C289       C3124   1.513       .  S
O290        H326   0.990       .  S
O291        C293   1.299       .  A
O292        C293   1.285       .  A
C293       C3264   1.523       .  S
O294       Zr295   2.438   1_565  S
O294        H323   0.990       .  S
Zr295       O298   2.436       .  S
Zr295       O299   2.439       .  S
Zr295       O300   2.399       .  S
O296        C301   1.284       .  A
O297        H314   0.990       .  S
O297        H329   0.989       .  S
O298        H315   0.990       .  S
O299        H319   0.990       .  S
O299        H328   0.990       .  S
O300        C301   1.280       .  A
C301       C3362   1.484       .  S
O302        H321   0.990       .  S
O302        H325   0.990       .  S
O303        H317   0.990       .  S
O303        H324   0.990       .  S
O304        C308   1.285       .  A
O305        C308   1.273       .  A
O306        H316   0.990       .  S
O307        H320   0.990       .  S
C308       C3152   1.458       .  S
Zr331       O332   2.437       .  S
Zr331       O333   2.479       .  S
Zr331       O334   2.507       .  S
Zr331       O337   2.613       .  S
Zr331       O339   2.427       .  S
Zr331       O340   2.394       .  S
Zr331       O341   2.469       .  S
Zr331       O342   2.388       .  S
O332        H388   0.990       .  S
O332        H396   0.991       .  S
O333        C353   1.292       .  A
O334        C355   1.295       .  A
O335       Zr345   2.397       .  S
O335        C354   1.272       .  A
O336       Zr344   2.411       .  S
O336        C355   1.273       .  A
O337        C354   1.319       .  A
O338       Zr346   2.395       .  S
O338        C353   1.276       .  A
O339       Zr344   2.431       .  S
O339       Zr346   2.368       .  S
O340       Zr345   2.396       .  S
O340       Zr346   2.386       .  S
O340        H375   0.966       .  S
O341       Zr344   2.442       .  S
O341       Zr361   2.347       .  S
O341        H378   0.964       .  S
O342       Zr345   2.394       .  S
O342       Zr361   2.393       .  S
Zr343       O368   2.441       .  S
Zr343       O362   2.421       .  S
Zr343       O370   2.391       .  S
Zr343       O358   2.412       .  S
Zr343       O349   2.384       .  S
Zr343       O350   2.385       .  S
Zr343       O351   2.369       .  S
Zr343       O352   2.384       .  S
Zr344       O363   2.437       .  S
Zr344       O356   2.436       .  S
Zr344       O357   2.541       .  S
Zr344       O350   2.383       .  S
Zr344       O351   2.347       .  S
Zr345       O347   2.436       .  S
Zr345       O369   2.436       .  S
Zr345       O371   2.421       .  S
Zr345       O349   2.385       .  S
Zr345       O352   2.374       .  S
Zr346       O372   2.437       .  S
Zr346       O373   2.435       .  S
Zr346       O348   2.437       .  S
Zr346       O349   2.386       .  S
Zr346       O350   2.397       .  S
O347        H384   0.990       .  S
O348        H379   0.990       .  S
O348        H393   0.990       .  S
O350        H376   0.966       .  S
O351       Zr361   2.371       .  S
O352       Zr361   2.373       .  S
O352        H377   0.939       .  S
C353       C3093   1.486       .  S
C354       C3163   1.572       .  S
C355       C3082   1.517       .  S
O356        H392   0.990       .  S
O357        C359   1.302       .  A
O358        C359   1.276       .  A
C359       C3205   1.539       .  S
O360       Zr361   2.436       .  S
O360        H389   0.991       .  S
Zr361       O364   2.438       .  S
Zr361       O365   2.436       .  S
Zr361       O366   2.402       .  S
O362        C367   1.279       .  A
O363        H380   0.989       .  S
O363        H395   0.989       .  S
O364        H381   0.990       .  S
O365        H385   0.990       .  S
O365        H394   0.987       .  S
O366        C367   1.274       .  A
C367       C3107   1.455       .  S
O368        H387   0.990       .  S
O368        H391   0.990       .  S
O369        H383   0.990       .  S
O369        H390   0.990       .  S
O370        C374   1.280       .  A
O371        C374   1.282       .  A
O372        H382   0.990   1_565  S
O373        H386   0.990       .  S
C374       C3429   1.485       .  S
Zr397       O398   2.435       .  S
Zr397       O399   2.472       .  S
Zr397       O400   2.594       .  S
Zr397       O403   2.533       .  S
Zr397       O405   2.392       .  S
Zr397       O406   2.436       .  S
Zr397       O407   2.414       .  S
Zr397       O408   2.402       .  S
O398        H454   0.990       .  S
O398        H462   0.990       .  S
O399        C419   1.291       .  A
O400        C421   1.317       .  A
O401       Zr411   2.425       .  S
O401        C420   1.275       .  A
O402       Zr410   2.404       .  S
O402        C421   1.280       .  A
O403        C420   1.302       .  A
O404       Zr412   2.435       .  S
O404        C419   1.285       .  A
O405       Zr410   2.407       .  S
O405       Zr412   2.385       .  S
O406       Zr411   2.410       .  S
O406       Zr412   2.376       .  S
O406        H441   0.964       .  S
O407       Zr410   2.403       .  S
O407       Zr427   2.405       .  S
O407        H444   0.966       .  S
O408       Zr411   2.410       .  S
O408       Zr427   2.340       .  S
Zr409       O434   2.439       .  S
Zr409       O428   2.413   1_655  S
Zr409       O436   2.387       .  S
Zr409       O424   2.371       .  S
Zr409       O415   2.390       .  S
Zr409       O416   2.397       .  S
Zr409       O417   2.380       .  S
Zr409       O418   2.364       .  S
Zr410       O429   2.436       .  S
Zr410       O422   2.433       .  S
Zr410       O423   2.442       .  S
Zr410       O416   2.385       .  S
Zr410       O417   2.381       .  S
Zr411       O413   2.433   1_655  S
Zr411       O435   2.436       .  S
Zr411       O437   2.516       .  S
Zr411       O415   2.378       .  S
Zr411       O418   2.365       .  S
Zr412       O438   2.433       .  S
Zr412       O439   2.438       .  S
Zr412       O414   2.441       .  S
Zr412       O415   2.413       .  S
Zr412       O416   2.397       .  S
O413        H450   0.990       .  S
O414        H445   0.990       .  S
O414        H459   0.989       .  S
O416        H442   0.966       .  S
O417       Zr427   2.366       .  S
O418       Zr427   2.391       .  S
O418        H443   0.966   1_655  S
C419       C3054   1.497       .  S
C420       C3037   1.530       .  S
C421       C3065   1.552       .  S
O422        H458   0.990       .  S
O423        C425   1.286       .  A
O424        C425   1.274       .  A
C425       C3110   1.466       .  S
O426       Zr427   2.432   1_455  S
O426        H455   0.990   1_455  S
Zr427       O430   2.435   1_655  S
Zr427       O431   2.438   1_655  S
Zr427       O432   2.397   1_655  S
O428        C433   1.280       .  A
O429        H446   0.989       .  S
O429        H461   0.990       .  S
O430        H447   0.990       .  S
O431        H451   0.990       .  S
O431        H460   0.990       .  S
O432        C433   1.280       .  A
C433       C3222   1.465       .  S
O434        H453   0.990       .  S
O434        H457   0.991       .  S
O435        H449   0.990       .  S
O435        H456   0.990       .  S
O436        C440   1.272       .  A
O437        C440   1.298       .  A
O438        H448   0.989       .  S
O439        H452   0.990       .  S
C440       C3418   1.505   1_655  S
Zr463       O464   2.436       .  S
Zr463       O465   2.444       .  S
Zr463       O466   2.608       .  S
Zr463       O469   2.528       .  S
Zr463       O471   2.380       .  S
Zr463       O472   2.429       .  S
Zr463       O473   2.397       .  S
Zr463       O474   2.407       .  S
O464        H520   0.990       .  S
O464        H528   0.991       .  S
O465        C485   1.286       .  A
O466        C487   1.320       .  A
O467       Zr477   2.418       .  S
O467        C486   1.276       .  A
O468       Zr476   2.361       .  S
O468        C487   1.268       .  A
O469        C486   1.304       .  A
O470       Zr478   2.448       .  S
O470        C485   1.287       .  A
O471       Zr476   2.397       .  S
O471       Zr478   2.381       .  S
O472       Zr477   2.401       .  S
O472       Zr478   2.362       .  S
O472        H507   0.960       .  S
O473       Zr476   2.397       .  S
O473       Zr493   2.397       .  S
O473        H510   0.966       .  S
O474       Zr477   2.428       .  S
O474       Zr493   2.340       .  S
Zr475       O500   2.439       .  S
Zr475       O494   2.426       .  S
Zr475       O502   2.414       .  S
Zr475       O490   2.429       .  S
Zr475       O481   2.406       .  S
Zr475       O482   2.398       .  S
Zr475       O483   2.371       .  S
Zr475       O484   2.376       .  S
Zr476       O495   2.440       .  S
Zr476       O488   2.436       .  S
Zr476       O489   2.393       .  S
Zr476       O482   2.380       .  S
Zr476       O483   2.369       .  S
Zr477       O479   2.436       .  S
Zr477       O501   2.434       .  S
Zr477       O503   2.530       .  S
Zr477       O481   2.377       .  S
Zr477       O484   2.340       .  S
Zr478       O504   2.437       .  S
Zr478       O505   2.434       .  S
Zr478       O480   2.439       .  S
Zr478       O481   2.415       .  S
Zr478       O482   2.412       .  S
O479        H516   0.990       .  S
O480        H511   0.990       .  S
O480        H525   0.990       .  S
O482        H508   0.966       .  S
O483       Zr493   2.371       .  S
O484       Zr493   2.396       .  S
O484        H509   0.965       .  S
C485       C3026   1.482       .  S
C486       C3012   1.517       .  S
C487       C3068   1.533       .  S
O488        H524   0.990       .  S
O489        C491   1.276       .  A
O490        C491   1.284       .  A
C491       C3278   1.481       .  S
O492       Zr493   2.438       .  S
O492        H521   0.990       .  S
Zr493       O496   2.434       .  S
Zr493       O497   2.439       .  S
Zr493       O498   2.377       .  S
O494        C499   1.284       .  A
O495        H512   0.990       .  S
O495        H527   0.990       .  S
O496        H513   0.990       .  S
O497        H517   0.989       .  S
O497        H526   0.990       .  S
O498        C499   1.274       .  A
C499       C3149   1.477       .  S
O500        H519   0.990       .  S
O500        H523   0.990       .  S
O501        H515   0.990       .  S
O501        H522   0.990       .  S
O502        C506   1.280       .  A
O503        C506   1.303       .  A
O504        H514   0.990       .  S
O505        H518   0.991       .  S
C506       C3334   1.521       .  S
Zr529       O530   2.436       .  S
Zr529       O531   2.460       .  S
Zr529       O532   2.576       .  S
Zr529       O535   2.493       .  S
Zr529       O537   2.375       .  S
Zr529       O538   2.427       .  S
Zr529       O539   2.411       .  S
Zr529       O540   2.408       .  S
O530        H586   0.990       .  S
O530        H594   0.990       .  S
O531        C551   1.289       .  A
O532        C553   1.312       .  A
O533       Zr543   2.426       .  S
O533        C552   1.280       .  A
O534       Zr542   2.365       .  S
O534        C553   1.271       .  A
O535        C552   1.297       .  A
O536       Zr544   2.463       .  S
O536        C551   1.290       .  A
O537       Zr542   2.397       .  S
O537       Zr544   2.385       .  S
O538       Zr543   2.393       .  S
O538       Zr544   2.368       .  S
O538        H573   0.962       .  S
O539       Zr542   2.386       .  S
O539       Zr559   2.416       .  S
O539        H576   0.966       .  S
O540       Zr543   2.414       .  S
O540       Zr559   2.348       .  S
Zr541       O566   2.439       .  S
Zr541       O560   2.429       .  S
Zr541       O568   2.394       .  S
Zr541       O556   2.411       .  S
Zr541       O547   2.403       .  S
Zr541       O548   2.403       .  S
Zr541       O549   2.376       .  S
Zr541       O550   2.374       .  S
Zr542       O561   2.440       .  S
Zr542       O554   2.435       .  S
Zr542       O555   2.393       .  S
Zr542       O548   2.385       .  S
Zr542       O549   2.375       .  S
Zr543       O545   2.435       .  S
Zr543       O567   2.437       .  S
Zr543       O569   2.528       .  S
Zr543       O547   2.374       .  S
Zr543       O550   2.347       .  S
Zr544       O570   2.436       .  S
Zr544       O571   2.437       .  S
Zr544       O546   2.437       .  S
Zr544       O547   2.413       .  S
Zr544       O548   2.418       .  S
O545        H582   0.990       .  S
O546        H577   0.991       .  S
O546        H591   0.990       .  S
O548        H574   0.966       .  S
O549       Zr559   2.362       .  S
O550       Zr559   2.390       .  S
O550        H575   0.964       .  S
C551       C2939   1.501       .  S
C552       C2925   1.508       .  S
C553       C2995   1.526       .  S
O554        H590   0.990       .  S
O555        C557   1.275       .  A
O556        C557   1.282       .  A
C557       C2967   1.477       .  S
O558       Zr559   2.439       .  S
O558        H587   0.990       .  S
Zr559       O562   2.439       .  S
Zr559       O563   2.435       .  S
Zr559       O564   2.413       .  S
O560        C565   1.284       .  A
O561        H578   0.990       .  S
O561        H593   0.990       .  S
O562        H579   0.990       .  S
O563        H583   0.990       .  S
O563        H592   0.989       .  S
O564        C565   1.283       .  A
C565       C2984   1.481       .  S
O566        H585   0.990       .  S
O566        H589   0.990       .  S
O567        H581   0.989       .  S
O567        H588   0.990       .  S
O568        C572   1.277       .  A
O569        C572   1.302       .  A
O570        H580   0.990       .  S
O571        H584   0.990       .  S
C572       C2953   1.511       .  S
Zr595       O596   2.434       .  S
Zr595       O597   2.443       .  S
Zr595       O598   2.580       .  S
Zr595       O601   2.524       .  S
Zr595       O603   2.396       .  S
Zr595       O604   2.425       .  S
Zr595       O605   2.400       .  S
Zr595       O606   2.407       .  S
O596        H652   0.990       .  S
O596        H660   0.990       .  S
O597        C617   1.285       .  A
O598        C619   1.312       .  A
O599       Zr609   2.413       .  S
O599        C618   1.275       .  A
O600       Zr608   2.378       .  S
O600        C619   1.267       .  A
O601        C618   1.301       .  A
O602       Zr610   2.410       .  S
O602        C617   1.280       .  A
O603       Zr608   2.408       .  S
O603       Zr610   2.390       .  S
O604       Zr609   2.416       .  S
O604       Zr610   2.370       .  S
O604        H639   0.965       .  S
O605       Zr608   2.428       .  S
O605       Zr625   2.382       .  S
O605        H642   0.965       .  S
O606       Zr609   2.416       .  S
O606       Zr625   2.336       .  S
Zr607       O632   2.441       .  S
Zr607       O626   2.395       .  S
Zr607       O634   2.408       .  S
Zr607       O622   2.387       .  S
Zr607       O613   2.378       .  S
Zr607       O614   2.394       .  S
Zr607       O615   2.383       .  S
Zr607       O616   2.377       .  S
Zr608       O627   2.448       .  S
Zr608       O620   2.437       .  S
Zr608       O621   2.447       .  S
Zr608       O614   2.397       .  S
Zr608       O615   2.362       .  S
Zr609       O611   2.435       .  S
Zr609       O633   2.434       .  S
Zr609       O635   2.526       .  S
Zr609       O613   2.374       .  S
Zr609       O616   2.357       .  S
Zr610       O636   2.436       .  S
Zr610       O637   2.439       .  S
Zr610       O612   2.438       .  S
Zr610       O613   2.405       .  S
Zr610       O614   2.388       .  S
O611        H648   0.990       .  S
O612        H643   0.990       .  S
O612        H657   0.990       .  S
O614        H640   0.966       .  S
O615       Zr625   2.355       .  S
O616       Zr625   2.382       .  S
O616        H641   0.966       .  S
C617       C2872   1.476       .  S
C618       C2855   1.522       .  S
C619       C2998   1.518       .  S
O620        H656   0.991       .  S
O621        C623   1.279       .  A
O622        C623   1.271       .  A
C623       C2911   1.476       .  S
O624       Zr625   2.431       .  S
O624        H653   0.990       .  S
Zr625       O628   2.435       .  S
Zr625       O629   2.437       .  S
Zr625       O630   2.361       .  S
O626        C631   1.274       .  A
O627        H644   0.991       .  S
O627        H659   0.991       .  S
O628        H645   0.990       .  S
O629        H649   0.990       .  S
O629        H658   0.990       .  S
O630        C631   1.273       .  A
C631       C2897   1.440       .  S
O632        H651   0.989       .  S
O632        H655   0.990       .  S
O633        H647   0.990       .  S
O633        H654   0.990   1_554  S
O634        C638   1.280       .  A
O635        C638   1.302       .  A
O636        H646   0.990       .  S
O637        H650   0.990       .  S
C638       C2883   1.516       .  S
Zr661       O662   2.437   1_565  S
Zr661       O663   2.482       .  S
Zr661       O664   2.516   1_565  S
Zr661       O667   2.588   1_565  S
Zr661       O669   2.411       .  S
Zr661       O670   2.398       .  S
Zr661       O671   2.454       .  S
Zr661       O672   2.416       .  S
O662        H718   0.990       .  S
O662        H726   0.990       .  S
O663        C683   1.293       .  A
O664        C685   1.300   1_545  A
O665       Zr675   2.394   1_545  S
O665        C684   1.268       .  A
O666       Zr674   2.421       .  S
O666        C685   1.276       .  A
O667        C684   1.312       .  A
O668       Zr676   2.433       .  S
O668        C683   1.284       .  A
O669       Zr674   2.416       .  S
O669       Zr676   2.367       .  S
O670       Zr675   2.407       .  S
O670       Zr676   2.384       .  S
O670        H705   0.965       .  S
O671       Zr674   2.431       .  S
O671       Zr691   2.354       .  S
O671        H708   0.960       .  S
O672       Zr675   2.401       .  S
O672       Zr691   2.393       .  S
Zr673       O698   2.438       .  S
Zr673       O692   2.414       .  S
Zr673       O700   2.424       .  S
Zr673       O688   2.434       .  S
Zr673       O679   2.398       .  S
Zr673       O680   2.398       .  S
Zr673       O681   2.368       .  S
Zr673       O682   2.386       .  S
Zr674       O693   2.436   1_655  S
Zr674       O686   2.434       .  S
Zr674       O687   2.508       .  S
Zr674       O680   2.384       .  S
Zr674       O681   2.356       .  S
Zr675       O677   2.441       .  S
Zr675       O699   2.440       .  S
Zr675       O701   2.413       .  S
Zr675       O679   2.387       .  S
Zr675       O682   2.387       .  S
Zr676       O702   2.436       .  S
Zr676       O703   2.437       .  S
Zr676       O678   2.436       .  S
Zr676       O679   2.406       .  S
Zr676       O680   2.403       .  S
O677        H714   0.990       .  S
O678        H709   0.990       .  S
O678        H723   0.990       .  S
O680        H706   0.966       .  S
O681       Zr691   2.380       .  S
O682       Zr691   2.340       .  S
O682        H707   0.963       .  S
C683       C2799   1.508       .  S
C684       C2830   1.537       .  S
C685       C2785   1.517   1_565  S
O686        H722   0.990       .  S
O687        C689   1.299       .  A
O688        C689   1.284       .  A
C689       C2841   1.521       .  S
O690       Zr691   2.436   1_545  S
O690        H719   0.990       .  S
Zr691       O694   2.435   1_655  S
Zr691       O695   2.443       .  S
Zr691       O696   2.408   1_655  S
O692        C697   1.281   1_655  A
O693        H710   0.990       .  S
O693        H725   0.989       .  S
O694        H711   0.989       .  S
O695        H715   0.990       .  S
O695        H724   0.990   1_655  S
O696        C697   1.280       .  A
C697       C2813   1.485       .  S
O698        H717   0.990       .  S
O698        H721   0.990       .  S
O699        H713   0.990       .  S
O699        H720   0.989       .  S
O700        C704   1.286       .  A
O701        C704   1.279       .  A
O702        H712   0.990       .  S
O703        H716   0.990       .  S
C704       C2981   1.469       .  S
Zr727       O728   2.437       .  S
Zr727       O729   2.447       .  S
Zr727       O730   2.485       .  S
Zr727       O733   2.593       .  S
Zr727       O735   2.425       .  S
Zr727       O736   2.381       .  S
Zr727       O737   2.464       .  S
Zr727       O738   2.401       .  S
O728        H784   0.990       .  S
O728        H792   0.989       .  S
O729        C749   1.285       .  A
O730        C751   1.293       .  A
O731       Zr741   2.377       .  S
O731        C750   1.274       .  A
O732       Zr740   2.430       .  S
O732        C751   1.278       .  A
O733        C750   1.316       .  A
O734       Zr742   2.441       .  S
O734        C749   1.285       .  A
O735       Zr740   2.439       .  S
O735       Zr742   2.360       .  S
O736       Zr741   2.401       .  S
O736       Zr742   2.383       .  S
O736        H771   0.966       .  S
O737       Zr740   2.441       .  S
O737       Zr757   2.326       .  S
O737        H774   0.961       .  S
O738       Zr741   2.404       .  S
O738       Zr757   2.405       .  S
Zr739       O764   2.441       .  S
Zr739       O758   2.414       .  S
Zr739       O766   2.396       .  S
Zr739       O754   2.401       .  S
Zr739       O745   2.397       .  S
Zr739       O746   2.389       .  S
Zr739       O747   2.374       .  S
Zr739       O748   2.375       .  S
Zr740       O759   2.435       .  S
Zr740       O752   2.433       .  S
Zr740       O753   2.550       .  S
Zr740       O746   2.380       .  S
Zr740       O747   2.365       .  S
Zr741       O743   2.434       .  S
Zr741       O765   2.432       .  S
Zr741       O767   2.417       .  S
Zr741       O745   2.383       .  S
Zr741       O748   2.369       .  S
Zr742       O768   2.436       .  S
Zr742       O769   2.436       .  S
Zr742       O744   2.440       .  S
Zr742       O745   2.408       .  S
Zr742       O746   2.410       .  S
O743        H780   0.990       .  S
O744        H775   0.990       .  S
O744        H789   0.990       .  S
O746        H772   0.966       .  S
O747       Zr757   2.392       .  S
O748       Zr757   2.351       .  S
O748        H773   0.962       .  S
C749       C2743   1.495       .  S
C750       C2827   1.544       .  S
C751       C2732   1.515       .  S
O752        H788   0.990       .  S
O753        C755   1.307       .  A
O754        C755   1.277       .  A
C755       C2757   1.526       .  S
O756       Zr757   2.435       .  S
O756        H785   0.990       .  S
Zr757       O760   2.440       .  S
Zr757       O761   2.440       .  S
Zr757       O762   2.380       .  S
O758        C763   1.281       .  A
O759        H776   0.990       .  S
O759        H791   0.991       .  S
O760        H777   0.990       .  S
O761        H781   0.990       .  S
O761        H790   0.988       .  S
O762        C763   1.272       .  A
C763       C2914   1.445       .  S
O764        H783   0.990       .  S
O764        H787   0.990       .  S
O765        H779   0.990       .  S
O765        H786   0.989       .  S
O766        C770   1.276       .  A
O767        C770   1.280       .  A
O768        H778   0.990       .  S
O769        H782   0.990       .  S
C770       C2774   1.482       .  S
Zr793       O794   2.437       .  S
Zr793       O795   2.463       .  S
Zr793       O796   2.621       .  S
Zr793       O799   2.531       .  S
Zr793       O801   2.389       .  S
Zr793       O802   2.433       .  S
Zr793       O803   2.400       .  S
Zr793       O804   2.406       .  S
O794        H850   0.990       .  S
O794        H858   0.990       .  S
O795        C815   1.289       .  A
O796        C817   1.321       .  A
O797       Zr807   2.413       .  S
O797        C816   1.274       .  A
O798       Zr806   2.353       .  S
O798        C817   1.270       .  A
O799        C816   1.304       .  A
O800       Zr808   2.458       .  S
O800        C815   1.288       .  A
O801       Zr806   2.402       .  S
O801       Zr808   2.384       .  S
O802       Zr807   2.403       .  S
O802       Zr808   2.361       .  S
O802        H837   0.961       .  S
O803       Zr806   2.384       .  S
O803       Zr823   2.389       .  S
O803        H840   0.965       .  S
O804       Zr807   2.425       .  S
O804       Zr823   2.336       .  S
Zr805       O830   2.441       .  S
Zr805       O824   2.462       .  S
Zr805       O832   2.405       .  S
Zr805       O820   2.411       .  S
Zr805       O811   2.408       .  S
Zr805       O812   2.415       .  S
Zr805       O813   2.375       .  S
Zr805       O814   2.369       .  S
Zr806       O825   2.438       .  S
Zr806       O818   2.435       .  S
Zr806       O819   2.395       .  S
Zr806       O812   2.387       .  S
Zr806       O813   2.372       .  S
Zr807       O809   2.435       .  S
Zr807       O831   2.436       .  S
Zr807       O833   2.517       .  S
Zr807       O811   2.372       .  S
Zr807       O814   2.348       .  S
Zr808       O834   2.439       .  S
Zr808       O835   2.435       .  S
Zr808       O810   2.438       .  S
Zr808       O811   2.418       .  S
Zr808       O812   2.419       .  S
O809        H846   0.990       .  S
O810        H841   0.991       .  S
O810        H855   0.989       .  S
O812        H838   0.966       .  S
O813       Zr823   2.368       .  S
O814       Zr823   2.395       .  S
O814        H839   0.965       .  S
C815       C2687   1.494       .  S
C816       C2676   1.518       .  S
C817       C2715   1.545       .  S
O818        H854   0.990       .  S
O819        C821   1.274       .  A
O820        C821   1.280       .  A
C821       C2816   1.483       .  S
O822       Zr823   2.436       .  S
O822        H851   0.990       .  S
Zr823       O826   2.437       .  S
Zr823       O827   2.433       .  S
Zr823       O828   2.360       .  S
O824        C829   1.290       .  A
O825        H842   0.990       .  S
O825        H857   0.990       .  S
O826        H843   0.990       .  S
O827        H847   0.989       .  S
O827        H856   0.990       .  S
O828        C829   1.271       .  A
C829       C2704   1.481       .  S
O830        H849   0.990       .  S
O830        H853   0.990       .  S
O831        H845   0.991       .  S
O831        H852   0.990       .  S
O832        C836   1.278       .  A
O833        C836   1.299       .  A
O834        H844   0.990       .  S
O835        H848   0.991       .  S
C836       C2956   1.511       .  S
Zr859       O860   2.435   1_545  S
Zr859       O861   2.456       .  S
Zr859       O862   2.599   1_545  S
Zr859       O865   2.522       .  S
Zr859       O867   2.383       .  S
Zr859       O868   2.433       .  S
Zr859       O869   2.408       .  S
Zr859       O870   2.403       .  S
O860        H916   0.990       .  S
O860        H924   0.990       .  S
O861        C881   1.288       .  A
O862        C883   1.313       .  A
O863       Zr873   2.414       .  S
O863        C882   1.283       .  A
O864       Zr872   2.383       .  S
O864        C883   1.263   1_545  A
O865        C882   1.305       .  A
O866       Zr874   2.452       .  S
O866        C881   1.287       .  A
O867       Zr872   2.395       .  S
O867       Zr874   2.387       .  S
O868       Zr873   2.402       .  S
O868       Zr874   2.381       .  S
O868        H903   0.964       .  S
O869       Zr872   2.417       .  S
O869       Zr889   2.402       .  S
O869        H906   0.965       .  S
O870       Zr873   2.403       .  S
O870       Zr889   2.353       .  S
Zr871       O896   2.436       .  S
Zr871       O890   2.411       .  S
Zr871       O898   2.436       .  S
Zr871       O886   2.445       .  S
Zr871       O877   2.410       .  S
Zr871       O878   2.408       .  S
Zr871       O879   2.382       .  S
Zr871       O880   2.377       .  S
Zr872       O891   2.448       .  S
Zr872       O884   2.431       .  S
Zr872       O885   2.388       .  S
Zr872       O878   2.395       .  S
Zr872       O879   2.383       .  S
Zr873       O875   2.438       .  S
Zr873       O897   2.438       .  S
Zr873       O899   2.514       .  S
Zr873       O877   2.371       .  S
Zr873       O880   2.358       .  S
Zr874       O900   2.438       .  S
Zr874       O901   2.438       .  S
Zr874       O876   2.438       .  S
Zr874       O877   2.418       .  S
Zr874       O878   2.418       .  S
O875        H912   0.990       .  S
O876        H907   0.990       .  S
O876        H921   0.990       .  S
O878        H904   0.966       .  S
O879       Zr889   2.369       .  S
O880       Zr889   2.377       .  S
O880        H905   0.963       .  S
C881       C2645   1.497       .  S
C882       C2631   1.507       .  S
C883       C2718   1.535       .  S
O884        H920   0.989       .  S
O885        C887   1.273       .  A
O886        C887   1.288       .  A
C887       C2662   1.467       .  S
O888       Zr889   2.437       .  S
O888        H917   0.990       .  S
Zr889       O892   2.436       .  S
Zr889       O893   2.439       .  S
Zr889       O894   2.405       .  S
O890        C895   1.280       .  A
O891        H908   0.991       .  S
O891        H923   0.991       .  S
O892        H909   0.990       .  S
O893        H913   0.990       .  S
O893        H922   0.990       .  S
O894        C895   1.281       .  A
C895       C2771   1.475       .  S
O896        H915   0.990       .  S
O896        H919   0.990       .  S
O897        H911   0.990       .  S
O897        H918   0.990       .  S
O898        C902   1.285       .  A
O899        C902   1.298       .  A
O900        H910   0.991       .  S
O901        H914   0.990       .  S
C902       C2886   1.520       .  S
Zr925       O926   2.437       .  S
Zr925       O927   2.460       .  S
Zr925       O928   2.495       .  S
Zr925       O931   2.602       .  S
Zr925       O933   2.432       .  S
Zr925       O934   2.389       .  S
Zr925       O935   2.462       .  S
Zr925       O936   2.405       .  S
O926        H982   0.990       .  S
O926        H990   0.990       .  S
O927        C947   1.287       .  A
O928        C949   1.292       .  A
O929       Zr939   2.387       .  S
O929        C948   1.275       .  A
O930       Zr938   2.413       .  S
O930        C949   1.272       .  A
O931        C948   1.319       .  A
O932       Zr940   2.413       .  S
O932        C947   1.281       .  A
O933       Zr938   2.430       .  S
O933       Zr940   2.368       .  S
O934       Zr939   2.393       .  S
O934       Zr940   2.386       .  S
O934        H969   0.966       .  S
O935       Zr938   2.447       .  S
O935       Zr955   2.350       .  S
O935        H972   0.958       .  S
O936       Zr939   2.394       .  S
O936       Zr955   2.396       .  S
Zr937       O962   2.440       .  S
Zr937       O956   2.415       .  S
Zr937       O964   2.376       .  S
Zr937       O952   2.409       .  S
Zr937       O943   2.402       .  S
Zr937       O944   2.389       .  S
Zr937       O945   2.362       .  S
Zr937       O946   2.397       .  S
Zr938       O957   2.434       .  S
Zr938       O950   2.433       .  S
Zr938       O951   2.545       .  S
Zr938       O944   2.373       .  S
Zr938       O945   2.357       .  S
Zr939       O941   2.433       .  S
Zr939       O963   2.435       .  S
Zr939       O965   2.396       .  S
Zr939       O943   2.386       .  S
Zr939       O946   2.384       .  S
Zr940       O966   2.435       .  S
Zr940       O967   2.436       .  S
Zr940       O942   2.436       .  S
Zr940       O943   2.388       .  S
Zr940       O944   2.401       .  S
O941        H978   0.990       .  S
O942        H973   0.991       .  S
O942        H987   0.990       .  S
O944        H970   0.966       .  S
O945       Zr955   2.387       .  S
O946       Zr955   2.349       .  S
O946        H971   0.965       .  S
C947       C2603   1.489       .  S
C948       C2620   1.555       .  S
C949       C2592   1.518       .  S
O950        H986   0.990       .  S
O951        C953   1.306       .  A
O952        C953   1.278       .  A
C953       C2760   1.525       .  S
O954       Zr955   2.435       .  S
O954        H983   0.990       .  S
Zr955       O958   2.437       .  S
Zr955       O959   2.442       .  S
Zr955       O960   2.394       .  S
O956        C961   1.279       .  A
O957        H974   0.990       .  S
O957        H989   0.990       .  S
O958        H975   0.989       .  S
O959        H979   0.990       .  S
O959        H988   0.990       .  S
O960        C961   1.279       .  A
C961       C2659   1.477       .  S
O962        H981   0.989       .  S
O962        H985   0.990       .  S
O963        H977   0.990       .  S
O963        H984   0.990       .  S
O964        C968   1.273       .  A
O965        C968   1.277       .  A
O966        H976   0.990       .  S
O967        H980   0.990       .  S
C968       C2900   1.429       .  S
Zr991       O992   2.437       .  S
Zr991       O993   2.484       .  S
Zr991       O994   2.514       .  S
Zr991       O997   2.613       .  S
Zr991       O999   2.422       .  S
Zr991      O1000   2.401       .  S
Zr991      O1001   2.460       .  S
Zr991      O1002   2.398       .  S
O992       H1048   0.990       .  S
O992       H1056   0.990       .  S
O993       C1013   1.293       .  A
O994       C1015   1.299       .  A
O995      Zr1005   2.372       .  S
O995       C1014   1.270       .  A
O996      Zr1004   2.407       .  S
O996       C1015   1.274       .  A
O997       C1014   1.321       .  A
O998      Zr1006   2.409       .  S
O998       C1013   1.278       .  A
O999      Zr1004   2.418       .  S
O999      Zr1006   2.368       .  S
O1000     Zr1005   2.391       .  S
O1000     Zr1006   2.398       .  S
O1000      H1035   0.966       .  S
O1001     Zr1004   2.443       .  S
O1001     Zr1021   2.361       .  S
O1001      H1038   0.963       .  S
O1002     Zr1005   2.400       .  S
O1002     Zr1021   2.397       .  S
Zr1003     O1028   2.437       .  S
Zr1003     O1022   2.396       .  S
Zr1003     O1030   2.429       .  S
Zr1003     O1018   2.425       .  S
Zr1003     O1009   2.399       .  S
Zr1003     O1010   2.397       .  S
Zr1003     O1011   2.365       .  S
Zr1003     O1012   2.385       .  S
Zr1004     O1023   2.438       .  S
Zr1004     O1016   2.435       .  S
Zr1004     O1017   2.527       .  S
Zr1004     O1010   2.380       .  S
Zr1004     O1011   2.347       .  S
Zr1005     O1007   2.440       .  S
Zr1005     O1029   2.432       .  S
Zr1005     O1031   2.401       .  S
Zr1005     O1009   2.373       .  S
Zr1005     O1012   2.393       .  S
Zr1006     O1032   2.437       .  S
Zr1006     O1033   2.436       .  S
Zr1006     O1008   2.440       .  S
Zr1006     O1009   2.403       .  S
Zr1006     O1010   2.404       .  S
O1007      H1044   0.990       .  S
O1008      H1039   0.991       .  S
O1008      H1053   0.990       .  S
O1010      H1036   0.966       .  S
O1011     Zr1021   2.372       .  S
O1012     Zr1021   2.352       .  S
O1012      H1037   0.963       .  S
C1013      C2575   1.495       .  S
C1014      C2617   1.553       .  S
C1015      C2561   1.517       .  S
O1016      H1052   0.990       .  S
O1017      C1019   1.303       .  A
O1018      C1019   1.284       .  A
C1019      C2844   1.526       .  S
O1020     Zr1021   2.435       .  S
O1020      H1049   0.990       .  S
Zr1021     O1024   2.438       .  S
Zr1021     O1025   2.440       .  S
Zr1021     O1026   2.426       .  S
O1022      C1027   1.277       .  A
O1023      H1040   0.990       .  S
O1023      H1055   0.989       .  S
O1024      H1041   0.990   1_455  S
O1025      H1045   0.990       .  S
O1025      H1054   0.990       .  S
O1026      C1027   1.283       .  A
C1027      C2970   1.480   1_455  S
O1028      H1047   0.990       .  S
O1028      H1051   0.990       .  S
O1029      H1043   0.990       .  S
O1029      H1050   0.990       .  S
O1030      C1034   1.286       .  A
O1031      C1034   1.277       .  A
O1032      H1042   0.990       .  S
O1033      H1046   0.990       .  S
C1034      C2701   1.462       .  S
Zr1057     O1058   2.438       .  S
Zr1057     O1059   2.465       .  S
Zr1057     O1060   2.626       .  S
Zr1057     O1063   2.542       .  S
Zr1057     O1065   2.383       .  S
Zr1057     O1066   2.441       .  S
Zr1057     O1067   2.406       .  S
Zr1057     O1068   2.402       .  S
O1058      H1114   0.990       .  S
O1058      H1122   0.990       .  S
O1059      C1079   1.290       .  A
O1060      C1081   1.323       .  A
O1061     Zr1071   2.420       .  S
O1061      C1080   1.276       .  A
O1062     Zr1070   2.353       .  S
O1062      C1081   1.269       .  A
O1063      C1080   1.306       .  A
O1064     Zr1072   2.441       .  S
O1064      C1079   1.286       .  A
O1065     Zr1070   2.395       .  S
O1065     Zr1072   2.378       .  S
O1066     Zr1071   2.402       .  S
O1066     Zr1072   2.371       .  S
O1066      H1101   0.963       .  S
O1067     Zr1070   2.389       .  S
O1067     Zr1087   2.401       .  S
O1067      H1104   0.966       .  S
O1068     Zr1071   2.419       .  S
O1068     Zr1087   2.340       .  S
Zr1069     O1094   2.440       .  S
Zr1069     O1088   2.449       .  S
Zr1069     O1096   2.393       .  S
Zr1069     O1084   2.419       .  S
Zr1069     O1075   2.413       .  S
Zr1069     O1076   2.406       .  S
Zr1069     O1077   2.377       .  S
Zr1069     O1078   2.378       .  S
Zr1070     O1089   2.437       .  S
Zr1070     O1082   2.435       .  S
Zr1070     O1083   2.389       .  S
Zr1070     O1076   2.381       .  S
Zr1070     O1077   2.370       .  S
Zr1071     O1073   2.436       .  S
Zr1071     O1095   2.437       .  S
Zr1071     O1097   2.541       .  S
Zr1071     O1075   2.372       .  S
Zr1071     O1078   2.341       .  S
Zr1072     O1098   2.437       .  S
Zr1072     O1099   2.436       .  S
Zr1072     O1074   2.438       .  S
Zr1072     O1075   2.418       .  S
Zr1072     O1076   2.411       .  S
O1073      H1110   0.990       .  S
O1074      H1105   0.990       .  S
O1074      H1119   0.990       .  S
O1076      H1102   0.966       .  S
O1077     Zr1087   2.366       .  S
O1078     Zr1087   2.396       .  S
O1078      H1103   0.964       .  S
C1079      C3320   1.492       .  S
C1080      C3180   1.531       .  S
C1081      C2547   1.543       .  S
O1082      H1118   0.989       .  S
O1083      C1085   1.274       .  A
O1084      C1085   1.282       .  A
C1085      C2505   1.486       .  S
O1086     Zr1087   2.439       .  S
O1086      H1115   0.990       .  S
Zr1087     O1090   2.436       .  S
Zr1087     O1091   2.434       .  S
Zr1087     O1092   2.388       .  S
O1088      C1093   1.287       .  A
O1089      H1106   0.990       .  S
O1089      H1121   0.990       .  S
O1090      H1107   0.990       .  S
O1091      H1111   0.989       .  S
O1091      H1120   0.990       .  S
O1092      C1093   1.280       .  A
C1093      C2533   1.478       .  S
O1094      H1113   0.990       .  S
O1094      H1117   0.990       .  S
O1095      H1109   0.990       .  S
O1095      H1116   0.990       .  S
O1096      C1100   1.276       .  A
O1097      C1100   1.305       .  A
O1098      H1108   0.990       .  S
O1099      H1112   0.990       .  S
C1100      C2519   1.516       .  S
Zr1123     O1124   2.437   1_545  S
Zr1123     O1125   2.476       .  S
Zr1123     O1126   2.615   1_545  S
Zr1123     O1129   2.533   1_545  S
Zr1123     O1131   2.394       .  S
Zr1123     O1132   2.436       .  S
Zr1123     O1133   2.408       .  S
Zr1123     O1134   2.428       .  S
O1124      H1180   0.990       .  S
O1124      H1188   0.990       .  S
O1125      C1145   1.292       .  A
O1126      C1147   1.319       .  A
O1127     Zr1137   2.404       .  S
O1127      C1146   1.270       .  A
O1128     Zr1136   2.370       .  S
O1128      C1147   1.270   1_545  A
O1129      C1146   1.301   1_565  A
O1130     Zr1138   2.427       .  S
O1130      C1145   1.283       .  A
O1131     Zr1136   2.393       .  S
O1131     Zr1138   2.386       .  S
O1132     Zr1137   2.425       .  S
O1132     Zr1138   2.370       .  S
O1132      H1167   0.965       .  S
O1133     Zr1136   2.418       .  S
O1133     Zr1153   2.402       .  S
O1133      H1170   0.965       .  S
O1134     Zr1137   2.433       .  S
O1134     Zr1153   2.344       .  S
Zr1135     O1160   2.439       .  S
Zr1135     O1154   2.427       .  S
Zr1135     O1162   2.420       .  S
Zr1135     O1150   2.400       .  S
Zr1135     O1141   2.391       .  S
Zr1135     O1142   2.409       .  S
Zr1135     O1143   2.378       .  S
Zr1135     O1144   2.390       .  S
Zr1136     O1155   2.445       .  S
Zr1136     O1148   2.434       .  S
Zr1136     O1149   2.431       .  S
Zr1136     O1142   2.389       .  S
Zr1136     O1143   2.330       .  S
Zr1137     O1139   2.437       .  S
Zr1137     O1161   2.435       .  S
Zr1137     O1163   2.506       .  S
Zr1137     O1141   2.381       .  S
Zr1137     O1144   2.372       .  S
Zr1138     O1164   2.437       .  S
Zr1138     O1165   2.436       .  S
Zr1138     O1140   2.439       .  S
Zr1138     O1141   2.412       .  S
Zr1138     O1142   2.397       .  S
O1139      H1176   0.990       .  S
O1140      H1171   0.990       .  S
O1140      H1185   0.990       .  S
O1142      H1168   0.966       .  S
O1143     Zr1153   2.353       .  S
O1144     Zr1153   2.386       .  S
O1144      H1169   0.966       .  S
C1145      C2648   1.494       .  S
C1146      C2788   1.522       .  S
C1147      C2550   1.548       .  S
O1148      H1184   0.989       .  S
O1149      C1151   1.283       .  A
O1150      C1151   1.278       .  A
C1151      C2491   1.486       .  S
O1152     Zr1153   2.436   1_565  S
O1152      H1181   0.989       .  S
Zr1153     O1156   2.440       .  S
Zr1153     O1157   2.442       .  S
Zr1153     O1158   2.388       .  S
O1154      C1159   1.273       .  A
O1155      H1172   0.990       .  S
O1155      H1187   0.991       .  S
O1156      H1173   0.990   1_455  S
O1157      H1177   0.990       .  S
O1157      H1186   0.990   1_455  S
O1158      C1159   1.267       .  A
C1159      C2477   1.470       .  S
O1160      H1179   0.990       .  S
O1160      H1183   0.990       .  S
O1161      H1175   0.990   1_556  S
O1161      H1182   0.990   1_556  S
O1162      C1166   1.282       .  A
O1163      C1166   1.297       .  A
O1164      H1174   0.990       .  S
O1165      H1178   0.990       .  S
C1166      C2463   1.511       .  S
Zr1189     O1190   2.435       .  S
Zr1189     O1191   2.452       .  S
Zr1189     O1192   2.614       .  S
Zr1189     O1195   2.507       .  S
Zr1189     O1197   2.375       .  S
Zr1189     O1198   2.435       .  S
Zr1189     O1199   2.405       .  S
Zr1189     O1200   2.416       .  S
O1190      H1246   0.990       .  S
O1190      H1254   0.990       .  S
O1191      C1211   1.287       .  A
O1192      C1213   1.321       .  A
O1193     Zr1203   2.419       .  S
O1193      C1212   1.276       .  A
O1194     Zr1202   2.382       .  S
O1194      C1213   1.273       .  A
O1195      C1212   1.299       .  A
O1196     Zr1204   2.435       .  S
O1196      C1211   1.286       .  A
O1197     Zr1202   2.393       .  S
O1197     Zr1204   2.382       .  S
O1198     Zr1203   2.395       .  S
O1198     Zr1204   2.370       .  S
O1198      H1233   0.964       .  S
O1199     Zr1202   2.391       .  S
O1199     Zr1219   2.417       .  S
O1199      H1236   0.966       .  S
O1200     Zr1203   2.423       .  S
O1200     Zr1219   2.352       .  S
Zr1201     O1226   2.440       .  S
Zr1201     O1220   2.439       .  S
Zr1201     O1228   2.419       .  S
Zr1201     O1216   2.427       .  S
Zr1201     O1207   2.404       .  S
Zr1201     O1208   2.404       .  S
Zr1201     O1209   2.379       .  S
Zr1201     O1210   2.371       .  S
Zr1202     O1221   2.436       .  S
Zr1202     O1214   2.435       .  S
Zr1202     O1215   2.395       .  S
Zr1202     O1208   2.394       .  S
Zr1202     O1209   2.385       .  S
Zr1203     O1205   2.436       .  S
Zr1203     O1227   2.435       .  S
Zr1203     O1229   2.528       .  S
Zr1203     O1207   2.377       .  S
Zr1203     O1210   2.342       .  S
Zr1204     O1230   2.438       .  S
Zr1204     O1231   2.437       .  S
Zr1204     O1206   2.437       .  S
Zr1204     O1207   2.410       .  S
Zr1204     O1208   2.404       .  S
O1205      H1242   0.990       .  S
O1206      H1237   0.990       .  S
O1206      H1251   0.990       .  S
O1208      H1234   0.966       .  S
O1209     Zr1219   2.363       .  S
O1210     Zr1219   2.391       .  S
O1210      H1235   0.964       .  S
C1211      C3023   1.493       .  S
C1212      C3079   1.514       .  S
C1213      C2449   1.548       .  S
O1214      H1250   0.990       .  S
O1215      C1217   1.276       .  A
O1216      C1217   1.286       .  A
C1217      C2421   1.483       .  S
O1218     Zr1219   2.437       .  S
O1218      H1247   0.990       .  S
Zr1219     O1222   2.437       .  S
Zr1219     O1223   2.434       .  S
Zr1219     O1224   2.399       .  S
O1220      C1225   1.287       .  A
O1221      H1238   0.990       .  S
O1221      H1253   0.990       .  S
O1222      H1239   0.990       .  S
O1223      H1243   0.989       .  S
O1223      H1252   0.990       .  S
O1224      C1225   1.280       .  A
C1225      C2435   1.478       .  S
O1226      H1245   0.990       .  S
O1226      H1249   0.990       .  S
O1227      H1241   0.990       .  S
O1227      H1248   0.990       .  S
O1228      C1232   1.282       .  A
O1229      C1232   1.302       .  A
O1230      H1240   0.990       .  S
O1231      H1244   0.991       .  S
C1232      C2522   1.522       .  S
Zr1255     O1256   2.435       .  S
Zr1255     O1257   2.431       .  S
Zr1255     O1258   2.604       .  S
Zr1255     O1261   2.535       .  S
Zr1255     O1263   2.381       .  S
Zr1255     O1264   2.436       .  S
Zr1255     O1265   2.404       .  S
Zr1255     O1266   2.406       .  S
O1256      H1312   0.990       .  S
O1256      H1320   0.990       .  S
O1257      C1277   1.283       .  A
O1258      C1279   1.318       .  A
O1259     Zr1269   2.426       .  S
O1259      C1278   1.286       .  A
O1260     Zr1268   2.384       .  S
O1260      C1279   1.273       .  A
O1261      C1278   1.308       .  A
O1262     Zr1270   2.450       .  S
O1262      C1277   1.287       .  A
O1263     Zr1268   2.397       .  S
O1263     Zr1270   2.378       .  S
O1264     Zr1269   2.410       .  S
O1264     Zr1270   2.381       .  S
O1264      H1299   0.964       .  S
O1265     Zr1268   2.398       .  S
O1265     Zr1285   2.417       .  S
O1265      H1302   0.965       .  S
O1266     Zr1269   2.413       .  S
O1266     Zr1285   2.323       .  S
Zr1267     O1292   2.441       .  S
Zr1267     O1286   2.412       .  S
Zr1267     O1294   2.414       .  S
Zr1267     O1282   2.399       .  S
Zr1267     O1273   2.401       .  S
Zr1267     O1274   2.405       .  S
Zr1267     O1275   2.380       .  S
Zr1267     O1276   2.382       .  S
Zr1268     O1287   2.447       .  S
Zr1268     O1280   2.436       .  S
Zr1268     O1281   2.426       .  S
Zr1268     O1274   2.392       .  S
Zr1268     O1275   2.363       .  S
Zr1269     O1271   2.439       .  S
Zr1269     O1293   2.439       .  S
Zr1269     O1295   2.524       .  S
Zr1269     O1273   2.381       .  S
Zr1269     O1276   2.366       .  S
Zr1270     O1296   2.436       .  S
Zr1270     O1297   2.437       .  S
Zr1270     O1272   2.435       .  S
Zr1270     O1273   2.418       .  S
Zr1270     O1274   2.413       .  S
O1271      H1308   0.989   1_556  S
O1272      H1303   0.990       .  S
O1272      H1317   0.990       .  S
O1274      H1300   0.966       .  S
O1275     Zr1285   2.370       .  S
O1276     Zr1285   2.392       .  S
O1276      H1301   0.964       .  S
C1277      C2869   1.482       .  S
C1278      C2564   1.510       .  S
C1279      C2452   1.547       .  S
O1280      H1316   0.990       .  S
O1281      C1283   1.281       .  A
O1282      C1283   1.278       .  A
C1283      C2396   1.480       .  S
O1284     Zr1285   2.438       .  S
O1284      H1313   0.990       .  S
Zr1285     O1288   2.439   1_655  S
Zr1285     O1289   2.431   1_655  S
Zr1285     O1290   2.388   1_655  S
O1286      C1291   1.274   1_655  A
O1287      H1304   0.990       .  S
O1287      H1319   0.990       .  S
O1288      H1305   0.990       .  S
O1289      H1309   0.990       .  S
O1289      H1318   0.990       .  S
O1290      C1291   1.265       .  A
C1291      C2407   1.444       .  S
O1292      H1311   0.990       .  S
O1292      H1315   0.991       .  S
O1293      H1307   0.990       .  S
O1293      H1314   0.990   1_556  S
O1294      C1298   1.279       .  A
O1295      C1298   1.300       .  A
O1296      H1306   0.990       .  S
O1297      H1310   0.990       .  S
C1298      C2466   1.512       .  S
Zr1321     O1322   2.439       .  S
Zr1321     O1323   2.479       .  S
Zr1321     O1324   2.491       .  S
Zr1321     O1327   2.585       .  S
Zr1321     O1329   2.429       .  S
Zr1321     O1330   2.402       .  S
Zr1321     O1331   2.467       .  S
Zr1321     O1332   2.402       .  S
O1322      H1378   0.990       .  S
O1322      H1386   0.990       .  S
O1323      C1343   1.291       .  A
O1324      C1345   1.289       .  A
O1325     Zr1335   2.411       .  S
O1325      C1344   1.279       .  A
O1326     Zr1334   2.406       .  S
O1326      C1345   1.271       .  A
O1327      C1344   1.315       .  A
O1328     Zr1336   2.405       .  S
O1328      C1343   1.278       .  A
O1329     Zr1334   2.431       .  S
O1329     Zr1336   2.369       .  S
O1330     Zr1335   2.400       .  S
O1330     Zr1336   2.397       .  S
O1330      H1365   0.966       .  S
O1331     Zr1334   2.451       .  S
O1331     Zr1351   2.361       .  S
O1331      H1368   0.964       .  S
O1332     Zr1335   2.399       .  S
O1332     Zr1351   2.389       .  S
Zr1333     O1358   2.436       .  S
Zr1333     O1352   2.403       .  S
Zr1333     O1360   2.367       .  S
Zr1333     O1348   2.397       .  S
Zr1333     O1339   2.399       .  S
Zr1333     O1340   2.381       .  S
Zr1333     O1341   2.361       .  S
Zr1333     O1342   2.388       .  S
Zr1334     O1353   2.435       .  S
Zr1334     O1346   2.434       .  S
Zr1334     O1347   2.549       .  S
Zr1334     O1340   2.374       .  S
Zr1334     O1341   2.352       .  S
Zr1335     O1337   2.437       .  S
Zr1335     O1359   2.437       .  S
Zr1335     O1361   2.436       .  S
Zr1335     O1339   2.385       .  S
Zr1335     O1342   2.389       .  S
Zr1336     O1362   2.435       .  S
Zr1336     O1363   2.437       .  S
Zr1336     O1338   2.437       .  S
Zr1336     O1339   2.393       .  S
Zr1336     O1340   2.403       .  S
O1337      H1374   0.990       .  S
O1338      H1369   0.991       .  S
O1338      H1383   0.990       .  S
O1340      H1366   0.966       .  S
O1341     Zr1351   2.379       .  S
O1342     Zr1351   2.358       .  S
O1342      H1367   0.965       .  S
C1343      C3096   1.491       .  S
C1344      C2379   1.551       .  S
C1345      C3009   1.517       .  S
O1346      H1382   0.990       .  S
O1347      C1349   1.307       .  A
O1348      C1349   1.278       .  A
C1349      C2365   1.533       .  S
O1350     Zr1351   2.439       .  S
O1350      H1379   0.990       .  S
Zr1351     O1354   2.435       .  S
Zr1351     O1355   2.438       .  S
Zr1351     O1356   2.394       .  S
O1352      C1357   1.278       .  A
O1353      H1370   0.990       .  S
O1353      H1385   0.990       .  S
O1354      H1371   0.990       .  S
O1355      H1375   0.990       .  S
O1355      H1384   0.990       .  S
O1356      C1357   1.279       .  A
C1357      C2393   1.461       .  S
O1358      H1377   0.991       .  S
O1358      H1381   0.989       .  S
O1359      H1373   0.990       .  S
O1359      H1380   0.990       .  S
O1360      C1364   1.273       .  A
O1361      C1364   1.282       .  A
O1362      H1372   0.991       .  S
O1363      H1376   0.990       .  S
C1364      C2480   1.451       .  S
Zr1387     O1388   2.437   1_565  S
Zr1387     O1389   2.490       .  S
Zr1387     O1390   2.514   1_565  S
Zr1387     O1393   2.604   1_565  S
Zr1387     O1395   2.417       .  S
Zr1387     O1396   2.395       .  S
Zr1387     O1397   2.455       .  S
Zr1387     O1398   2.407       .  S
O1388      H1444   0.990       .  S
O1388      H1452   0.990       .  S
O1389      C1409   1.294       .  A
O1390      C1411   1.301   1_545  A
O1391     Zr1401   2.370   1_545  S
O1391      C1410   1.270       .  A
O1392     Zr1400   2.413       .  S
O1392      C1411   1.277       .  A
O1393      C1410   1.319       .  A
O1394     Zr1402   2.419       .  S
O1394      C1409   1.281       .  A
O1395     Zr1400   2.418       .  S
O1395     Zr1402   2.372       .  S
O1396     Zr1401   2.395       .  S
O1396     Zr1402   2.390       .  S
O1396      H1431   0.966       .  S
O1397     Zr1400   2.435       .  S
O1397     Zr1417   2.355       .  S
O1397      H1434   0.962       .  S
O1398     Zr1401   2.399       .  S
O1398     Zr1417   2.397       .  S
Zr1399     O1424   2.439       .  S
Zr1399     O1418   2.416       .  S
Zr1399     O1426   2.415       .  S
Zr1399     O1414   2.431       .  S
Zr1399     O1405   2.402       .  S
Zr1399     O1406   2.398       .  S
Zr1399     O1407   2.363       .  S
Zr1399     O1408   2.387       .  S
Zr1400     O1419   2.436       .  S
Zr1400     O1412   2.435       .  S
Zr1400     O1413   2.521       .  S
Zr1400     O1406   2.386       .  S
Zr1400     O1407   2.348       .  S
Zr1401     O1403   2.440       .  S
Zr1401     O1425   2.432       .  S
Zr1401     O1427   2.409       .  S
Zr1401     O1405   2.371       .  S
Zr1401     O1408   2.387       .  S
Zr1402     O1428   2.438       .  S
Zr1402     O1429   2.438       .  S
Zr1402     O1404   2.438       .  S
Zr1402     O1405   2.401       .  S
Zr1402     O1406   2.411       .  S
O1403      H1440   0.992       .  S
O1404      H1435   0.990       .  S
O1404      H1449   0.990       .  S
O1406      H1432   0.966       .  S
O1407     Zr1417   2.377       .  S
O1408     Zr1417   2.350       .  S
O1408      H1433   0.962       .  S
C1409      C2802   1.503       .  S
C1410      C2382   1.541       .  S
C1411      C2634   1.518   1_565  S
O1412      H1448   0.990       .  S
O1413      C1415   1.301       .  A
O1414      C1415   1.284       .  A
C1415      C2351   1.525       .  S
O1416     Zr1417   2.437   1_545  S
O1416      H1445   0.990       .  S
Zr1417     O1420   2.438       .  S
Zr1417     O1421   2.442       .  S
Zr1417     O1422   2.411       .  S
O1418      C1423   1.281       .  A
O1419      H1436   0.990       .  S
O1419      H1451   0.990       .  S
O1420      H1437   0.990       .  S
O1421      H1441   0.990       .  S
O1421      H1450   0.990       .  S
O1422      C1423   1.281       .  A
C1423      C2508   1.486       .  S
O1424      H1443   0.990       .  S
O1424      H1447   0.990       .  S
O1425      H1439   0.990       .  S
O1425      H1446   0.990       .  S
O1426      C1430   1.283       .  A
O1427      C1430   1.278       .  A
O1428      H1438   0.990       .  S
O1429      H1442   0.990       .  S
C1430      C2438   1.464       .  S
Zr1453     O1454   2.438       .  S
Zr1453     O1455   2.463       .  S
Zr1453     O1456   2.493       .  S
Zr1453     O1459   2.591       .  S
Zr1453     O1461   2.425       .  S
Zr1453     O1462   2.398       .  S
Zr1453     O1463   2.466       .  S
Zr1453     O1464   2.401       .  S
O1454      H1510   0.990       .  S
O1454      H1518   0.990       .  S
O1455      C1475   1.288       .  A
O1456      C1477   1.292       .  A
O1457     Zr1467   2.408       .  S
O1457      C1476   1.279       .  A
O1458     Zr1466   2.417       .  S
O1458      C1477   1.274       .  A
O1459      C1476   1.317       .  A
O1460     Zr1468   2.398       .  S
O1460      C1475   1.276       .  A
O1461     Zr1466   2.431       .  S
O1461     Zr1468   2.364       .  S
O1462     Zr1467   2.403       .  S
O1462     Zr1468   2.393       .  S
O1462      H1497   0.966       .  S
O1463     Zr1466   2.449       .  S
O1463     Zr1483   2.343       .  S
O1463      H1500   0.964       .  S
O1464     Zr1467   2.399       .  S
O1464     Zr1483   2.392       .  S
Zr1465     O1490   2.440       .  S
Zr1465     O1484   2.401       .  S
Zr1465     O1492   2.358       .  S
Zr1465     O1480   2.398       .  S
Zr1465     O1471   2.397       .  S
Zr1465     O1472   2.380       .  S
Zr1465     O1473   2.365       .  S
Zr1465     O1474   2.390       .  S
Zr1466     O1485   2.437       .  S
Zr1466     O1478   2.433       .  S
Zr1466     O1479   2.549       .  S
Zr1466     O1472   2.378       .  S
Zr1466     O1473   2.353       .  S
Zr1467     O1469   2.432       .  S
Zr1467     O1491   2.435       .  S
Zr1467     O1493   2.435       .  S
Zr1467     O1471   2.386       .  S
Zr1467     O1474   2.378       .  S
Zr1468     O1494   2.437       .  S
Zr1468     O1495   2.435       .  S
Zr1468     O1470   2.440       .  S
Zr1468     O1471   2.393       .  S
Zr1468     O1472   2.402       .  S
O1469      H1506   0.991       .  S
O1470      H1501   0.990       .  S
O1470      H1515   0.991       .  S
O1472      H1498   0.966       .  S
O1473     Zr1483   2.384       .  S
O1474     Zr1483   2.351       .  S
O1474      H1499   0.965       .  S
C1475      C3194   1.482       .  S
C1476      C2340   1.557       .  S
C1477      C3303   1.519       .  S
O1478      H1514   0.990       .  S
O1479      C1481   1.306       .  A
O1480      C1481   1.276       .  A
C1481      C2368   1.525       .  S
O1482     Zr1483   2.434       .  S
O1482      H1511   0.991       .  S
Zr1483     O1486   2.434       .  S
Zr1483     O1487   2.438       .  S
Zr1483     O1488   2.394       .  S
O1484      C1489   1.278       .  A
O1485      H1502   0.990       .  S
O1485      H1517   0.988       .  S
O1486      H1503   0.990       .  S
O1487      H1507   0.990       .  S
O1487      H1516   0.990       .  S
O1488      C1489   1.280       .  A
C1489      C2494   1.465       .  S
O1490      H1509   0.990       .  S
O1490      H1513   0.990       .  S
O1491      H1505   0.990       .  S
O1491      H1512   0.991       .  S
O1492      C1496   1.271       .  A
O1493      C1496   1.283       .  A
O1494      H1504   0.990       .  S
O1495      H1508   0.990       .  S
C1496      C2410   1.440       .  S
Zr1519     O1520   2.436       .  S
Zr1519     O1521   2.481       .  S
Zr1519     O1522   2.515       .  S
Zr1519     O1525   2.611       .  S
Zr1519     O1527   2.422       .  S
Zr1519     O1528   2.400       .  S
Zr1519     O1529   2.461       .  S
Zr1519     O1530   2.408       .  S
O1520      H1576   0.990       .  S
O1520      H1584   0.990       .  S
O1521      C1541   1.291       .  A
O1522      C1543   1.299       .  A
O1523     Zr1533   2.371       .  S
O1523      C1542   1.270       .  A
O1524     Zr1532   2.416       .  S
O1524      C1543   1.274       .  A
O1525      C1542   1.320       .  A
O1526     Zr1534   2.421       .  S
O1526      C1541   1.281       .  A
O1527     Zr1532   2.421       .  S
O1527     Zr1534   2.365       .  S
O1528     Zr1533   2.395       .  S
O1528     Zr1534   2.394       .  S
O1528      H1563   0.966       .  S
O1529     Zr1532   2.442       .  S
O1529     Zr1549   2.353       .  S
O1529      H1566   0.962       .  S
O1530     Zr1533   2.406       .  S
O1530     Zr1549   2.401       .  S
Zr1531     O1556   2.440       .  S
Zr1531     O1550   2.426       .  S
Zr1531     O1558   2.426       .  S
Zr1531     O1546   2.422       .  S
Zr1531     O1537   2.403       .  S
Zr1531     O1538   2.403       .  S
Zr1531     O1539   2.363       .  S
Zr1531     O1540   2.386       .  S
Zr1532     O1551   2.436       .  S
Zr1532     O1544   2.434       .  S
Zr1532     O1545   2.524       .  S
Zr1532     O1538   2.388       .  S
Zr1532     O1539   2.349       .  S
Zr1533     O1535   2.438       .  S
Zr1533     O1557   2.435       .  S
Zr1533     O1559   2.407       .  S
Zr1533     O1537   2.373       .  S
Zr1533     O1540   2.392       .  S
Zr1534     O1560   2.438       .  S
Zr1534     O1561   2.435       .  S
Zr1534     O1536   2.436       .  S
Zr1534     O1537   2.404       .  S
Zr1534     O1538   2.405       .  S
O1535      H1572   0.990       .  S
O1536      H1567   0.990       .  S
O1536      H1581   0.990       .  S
O1538      H1564   0.966       .  S
O1539     Zr1549   2.377       .  S
O1540     Zr1549   2.345       .  S
O1540      H1565   0.963       .  S
C1541      C2578   1.500       .  S
C1542      C2337   1.550       .  S
C1543      C2858   1.522       .  S
O1544      H1580   0.990       .  S
O1545      C1547   1.302       .  A
O1546      C1547   1.282       .  A
C1547      C2354   1.525       .  S
O1548     Zr1549   2.438       .  S
O1548      H1577   0.990       .  S
Zr1549     O1552   2.437       .  S
Zr1549     O1553   2.442       .  S
Zr1549     O1554   2.415       .  S
O1550      C1555   1.283       .  A
O1551      H1568   0.990       .  S
O1551      H1583   0.989       .  S
O1552      H1569   0.990       .  S
O1553      H1573   0.990       .  S
O1553      H1582   0.990       .  S
O1554      C1555   1.281       .  A
C1555      C2424   1.486       .  S
O1556      H1575   0.990       .  S
O1556      H1579   0.990       .  S
O1557      H1571   0.991       .  S
O1557      H1578   0.990       .  S
O1558      C1562   1.286       .  A
O1559      C1562   1.278       .  A
O1560      H1570   0.989       .  S
O1561      H1574   0.990       .  S
C1562      C2536   1.464       .  S
Zr1585     O1586   2.437       .  S
Zr1585     O1587   2.486       .  S
Zr1585     O1588   2.514       .  S
Zr1585     O1591   2.580       .  S
Zr1585     O1593   2.409       .  S
Zr1585     O1594   2.397       .  S
Zr1585     O1595   2.450       .  S
Zr1585     O1596   2.416       .  S
O1586      H1642   0.990       .  S
O1586      H1650   0.990       .  S
O1587      C1607   1.293       .  A
O1588      C1609   1.301       .  A
O1589     Zr1599   2.395       .  S
O1589      C1608   1.267       .  A
O1590     Zr1598   2.436       .  S
O1590      C1609   1.280       .  A
O1591      C1608   1.309       .  A
O1592     Zr1600   2.430       .  S
O1592      C1607   1.283       .  A
O1593     Zr1598   2.417       .  S
O1593     Zr1600   2.368       .  S
O1594     Zr1599   2.411       .  S
O1594     Zr1600   2.384       .  S
O1594      H1629   0.965       .  S
O1595     Zr1598   2.429       .  S
O1595     Zr1615   2.342       .  S
O1595      H1632   0.959       .  S
O1596     Zr1599   2.401       .  S
O1596     Zr1615   2.392       .  S
Zr1597     O1622   2.438       .  S
Zr1597     O1616   2.429       .  S
Zr1597     O1624   2.423       .  S
Zr1597     O1612   2.431       .  S
Zr1597     O1603   2.398       .  S
Zr1597     O1604   2.407       .  S
Zr1597     O1605   2.370       .  S
Zr1597     O1606   2.384       .  S
Zr1598     O1617   2.437       .  S
Zr1598     O1610   2.434       .  S
Zr1598     O1611   2.519       .  S
Zr1598     O1604   2.391       .  S
Zr1598     O1605   2.354       .  S
Zr1599     O1601   2.440       .  S
Zr1599     O1623   2.441       .  S
Zr1599     O1625   2.421       .  S
Zr1599     O1603   2.382       .  S
Zr1599     O1606   2.380       .  S
Zr1600     O1626   2.440       .  S
Zr1600     O1627   2.439       .  S
Zr1600     O1602   2.438       .  S
Zr1600     O1603   2.408       .  S
Zr1600     O1604   2.412       .  S
O1601      H1638   0.989       .  S
O1602      H1633   0.990       .  S
O1602      H1647   0.990       .  S
O1604      H1630   0.966       .  S
O1605     Zr1615   2.381       .  S
O1606     Zr1615   2.352       .  S
O1606      H1631   0.963       .  S
C1607      C3247   1.503       .  S
C1608      C2326   1.531       .  S
C1609      C3040   1.523       .  S
O1610      H1646   0.990       .  S
O1611      C1613   1.301       .  A
O1612      C1613   1.282       .  A
C1613      C2281   1.521       .  S
O1614     Zr1615   2.438       .  S
O1614      H1643   0.990       .  S
Zr1615     O1618   2.436       .  S
Zr1615     O1619   2.449       .  S
Zr1615     O1620   2.400       .  S
O1616      C1621   1.284       .  A
O1617      H1634   0.989       .  S
O1617      H1649   0.989       .  S
O1618      H1635   0.989       .  S
O1619      H1639   0.989       .  S
O1619      H1648   0.990       .  S
O1620      C1621   1.275       .  A
C1621      C2312   1.477   1_455  S
O1622      H1641   0.990       .  S
O1622      H1645   0.990       .  S
O1623      H1637   0.989       .  S
O1623      H1644   0.989       .  S
O1624      C1628   1.285       .  A
O1625      C1628   1.281       .  A
O1626      H1636   0.990       .  S
O1627      H1640   0.990       .  S
C1628      C2298   1.476       .  S
Zr1651     O1652   2.438       .  S
Zr1651     O1653   2.465       .  S
Zr1651     O1654   2.492       .  S
Zr1651     O1657   2.575       .  S
Zr1651     O1659   2.428       .  S
Zr1651     O1660   2.398       .  S
Zr1651     O1661   2.466       .  S
Zr1651     O1662   2.404       .  S
O1652      H1708   0.990       .  S
O1652      H1716   0.990       .  S
O1653      C1673   1.288       .  A
O1654      C1675   1.289       .  A
O1655     Zr1665   2.374       .  S
O1655      C1674   1.272       .  A
O1656     Zr1664   2.407       .  S
O1656      C1675   1.270       .  A
O1657      C1674   1.312       .  A
O1658     Zr1666   2.399       .  S
O1658      C1673   1.277       .  A
O1659     Zr1664   2.432       .  S
O1659     Zr1666   2.366       .  S
O1660     Zr1665   2.397       .  S
O1660     Zr1666   2.390       .  S
O1660      H1695   0.966       .  S
O1661     Zr1664   2.446       .  S
O1661     Zr1681   2.347       .  S
O1661      H1698   0.962       .  S
O1662     Zr1665   2.398       .  S
O1662     Zr1681   2.389       .  S
Zr1663     O1688   2.438       .  S
Zr1663     O1682   2.391       .  S
Zr1663     O1690   2.374       .  S
Zr1663     O1678   2.392       .  S
Zr1663     O1669   2.390       .  S
Zr1663     O1670   2.382       .  S
Zr1663     O1671   2.369       .  S
Zr1663     O1672   2.385       .  S
Zr1664     O1683   2.436       .  S
Zr1664     O1676   2.433       .  S
Zr1664     O1677   2.532       .  S
Zr1664     O1670   2.381       .  S
Zr1664     O1671   2.358       .  S
Zr1665     O1667   2.435       .  S
Zr1665     O1689   2.436       .  S
Zr1665     O1691   2.419       .  S
Zr1665     O1669   2.380       .  S
Zr1665     O1672   2.374       .  S
Zr1666     O1692   2.439       .  S
Zr1666     O1693   2.435       .  S
Zr1666     O1668   2.437       .  S
Zr1666     O1669   2.393       .  S
Zr1666     O1670   2.404       .  S
O1667      H1704   0.991       .  S
O1668      H1699   0.990       .  S
O1668      H1713   0.990       .  S
O1670      H1696   0.966       .  S
O1671     Zr1681   2.387       .  S
O1672     Zr1681   2.352       .  S
O1672      H1697   0.964       .  S
C1673      C2606   1.483       .  S
C1674      C2323   1.536       .  S
C1675      C2673   1.516       .  S
O1676      H1712   0.990       .  S
O1677      C1679   1.302       .  A
O1678      C1679   1.276       .  A
C1679      C2239   1.515       .  S
O1680     Zr1681   2.437       .  S
O1680      H1709   0.990       .  S
Zr1681     O1684   2.436       .  S
Zr1681     O1685   2.441       .  S
Zr1681     O1686   2.389       .  S
O1682      C1687   1.275       .  A
O1683      H1700   0.990       .  S
O1683      H1715   0.989       .  S
O1684      H1701   0.990       .  S
O1685      H1705   0.990       .  S
O1685      H1714   0.989       .  S
O1686      C1687   1.279       .  A
C1687      C2253   1.456       .  S
O1688      H1707   0.989       .  S
O1688      H1711   0.991       .  S
O1689      H1703   0.990       .  S
O1689      H1710   0.990       .  S
O1690      C1694   1.273       .  A
O1691      C1694   1.280       .  A
O1692      H1702   0.990       .  S
O1693      H1706   0.990       .  S
C1694      C2270   1.445       .  S
Zr1717     O1718   2.439   1_545  S
Zr1717     O1719   2.489       .  S
Zr1717     O1720   2.490       .  S
Zr1717     O1723   2.606   1_545  S
Zr1717     O1725   2.438       .  S
Zr1717     O1726   2.404       .  S
Zr1717     O1727   2.475       .  S
Zr1717     O1728   2.423       .  S
O1718      H1774   0.990       .  S
O1718      H1782   0.990       .  S
O1719      C1739   1.293       .  A
O1720      C1741   1.293       .  A
O1721     Zr1731   2.369       .  S
O1721      C1740   1.270   1_545  A
O1722     Zr1730   2.427       .  S
O1722      C1741   1.275       .  A
O1723      C1740   1.320       .  A
O1724     Zr1732   2.417       .  S
O1724      C1739   1.281       .  A
O1725     Zr1730   2.450       .  S
O1725     Zr1732   2.356       .  S
O1726     Zr1731   2.402       .  S
O1726     Zr1732   2.397       .  S
O1726      H1761   0.966       .  S
O1727     Zr1730   2.452       .  S
O1727     Zr1747   2.377       .  S
O1727      H1764   0.961       .  S
O1728     Zr1731   2.372       .  S
O1728     Zr1747   2.423       .  S
Zr1729     O1754   2.449       .  S
Zr1729     O1748   2.412       .  S
Zr1729     O1756   2.389       .  S
Zr1729     O1744   2.406       .  S
Zr1729     O1735   2.354       .  S
Zr1729     O1736   2.388       .  S
Zr1729     O1738   2.386       .  S
Zr1729     O1737   2.262       .  S
Zr1730     O1749   2.435   1_655  S
Zr1730     O1742   2.445       .  S
Zr1730     O1743   2.538       .  S
Zr1730     O1736   2.397       .  S
Zr1730     O1737   2.292       .  S
Zr1731     O1733   2.430       .  S
Zr1731     O1755   2.440       .  S
Zr1731     O1757   2.387       .  S
Zr1731     O1735   2.351       .  S
Zr1731     O1738   2.396       .  S
Zr1732     O1758   2.434       .  S
Zr1732     O1759   2.434       .  S
Zr1732     O1734   2.439       .  S
Zr1732     O1735   2.357       .  S
Zr1732     O1736   2.422       .  S
O1733      H1770   0.990       .  S
O1734      H1765   0.990       .  S
O1734      H1779   0.990       .  S
O1736      H1762   0.966       .  S
O1737     Zr1747   2.310       .  S
O1738     Zr1747   2.388       .  S
O1738      H1763   0.965       .  S
C1739      C3138   1.499       .  S
C1740      C2225   1.545       .  S
C1741      C3376   1.509       .  S
O1742      H1778   0.990       .  S
O1743      C1745   1.304       .  A
O1744      C1745   1.279       .  A
C1745      C2284   1.533       .  S
O1746     Zr1747   2.448       .  S
O1746      H1775   0.990   1_545  S
Zr1747     O1750   2.437   1_655  S
Zr1747     O1751   2.449       .  S
Zr1747     O1752   2.398   1_655  S
O1748      C1753   1.281   1_655  A
O1749      H1766   0.989   1_455  S
O1749      H1781   0.988       .  S
O1750      H1767   0.989       .  S
O1751      H1771   0.990       .  S
O1751      H1780   0.990       .  S
O1752      C1753   1.279       .  A
C1753      C2211   1.477       .  S
O1754      H1773   0.992       .  S
O1754      H1777   0.990       .  S
O1755      H1769   0.990       .  S
O1755      H1776   0.990       .  S
O1756      C1760   1.276       .  A
O1757      C1760   1.269       .  A
O1758      H1768   0.990       .  S
O1759      H1772   0.990       .  S
C1760      C2197   1.439       .  S
Zr1783     O1784   2.439       .  S
Zr1783     O1785   2.485       .  S
Zr1783     O1786   2.476       .  S
Zr1783     O1789   2.580       .  S
Zr1783     O1791   2.425       .  S
Zr1783     O1792   2.395       .  S
Zr1783     O1793   2.471       .  S
Zr1783     O1794   2.412       .  S
O1784      H1840   0.990       .  S
O1784      H1848   0.990       .  S
O1785      C1805   1.292       .  A
O1786      C1807   1.287       .  A
O1787     Zr1797   2.410       .  S
O1787      C1806   1.278       .  A
O1788     Zr1796   2.413       .  S
O1788      C1807   1.273       .  A
O1789      C1806   1.313       .  A
O1790     Zr1798   2.386       .  S
O1790      C1805   1.274       .  A
O1791     Zr1796   2.426       .  S
O1791     Zr1798   2.367       .  S
O1792     Zr1797   2.400       .  S
O1792     Zr1798   2.396       .  S
O1792      H1827   0.966       .  S
O1793     Zr1796   2.442       .  S
O1793     Zr1813   2.354       .  S
O1793      H1830   0.963       .  S
O1794     Zr1797   2.402       .  S
O1794     Zr1813   2.407       .  S
Zr1795     O1820   2.437       .  S
Zr1795     O1814   2.396       .  S
Zr1795     O1822   2.381       .  S
Zr1795     O1810   2.411       .  S
Zr1795     O1801   2.397       .  S
Zr1795     O1802   2.382       .  S
Zr1795     O1803   2.368       .  S
Zr1795     O1804   2.388       .  S
Zr1796     O1815   2.436       .  S
Zr1796     O1808   2.433       .  S
Zr1796     O1809   2.530       .  S
Zr1796     O1802   2.381       .  S
Zr1796     O1803   2.362       .  S
Zr1797     O1799   2.432       .  S
Zr1797     O1821   2.439       .  S
Zr1797     O1823   2.418       .  S
Zr1797     O1801   2.392       .  S
Zr1797     O1804   2.393       .  S
Zr1798     O1824   2.436       .  S
Zr1798     O1825   2.437       .  S
Zr1798     O1800   2.441       .  S
Zr1798     O1801   2.391       .  S
Zr1798     O1802   2.397       .  S
O1799      H1836   0.991       .  S
O1800      H1831   0.991       .  S
O1800      H1845   0.989       .  S
O1802      H1828   0.965       .  S
O1803     Zr1813   2.379       .  S
O1804     Zr1813   2.349       .  S
O1804      H1829   0.965       .  S
C1805      C2746   1.487       .  S
C1806      C2228   1.552       .  S
C1807      C2928   1.512       .  S
O1808      H1844   0.989       .  S
O1809      C1811   1.303       .  A
O1810      C1811   1.280       .  A
C1811      C2242   1.526       .  S
O1812     Zr1813   2.434       .  S
O1812      H1841   0.990       .  S
Zr1813     O1816   2.437       .  S
Zr1813     O1817   2.441       .  S
Zr1813     O1818   2.406       .  S
O1814      C1819   1.276       .  A
O1815      H1832   0.990       .  S
O1815      H1847   0.991       .  S
O1816      H1833   0.991       .  S
O1817      H1837   0.990       .  S
O1817      H1846   0.990       .  S
O1818      C1819   1.281       .  A
C1819      C2169   1.463       .  S
O1820      H1839   0.991       .  S
O1820      H1843   0.989       .  S
O1821      H1835   0.989       .  S
O1821      H1842   0.989       .  S
O1822      C1826   1.276       .  A
O1823      C1826   1.278       .  A
O1824      H1834   0.991   1_565  S
O1825      H1838   0.991       .  S
C1826      C2183   1.449       .  S
Zr1849     O1850   2.437   1_565  S
Zr1849     O1851   2.435   1_565  S
Zr1849     O1852   2.579   1_565  S
Zr1849     O1855   2.515   1_565  S
Zr1849     O1857   2.389       .  S
Zr1849     O1858   2.431       .  S
Zr1849     O1859   2.395       .  S
Zr1849     O1860   2.417       .  S
O1850      H1906   0.990       .  S
O1850      H1914   0.990       .  S
O1851      C1871   1.284   1_545  A
O1852      C1873   1.312       .  A
O1853     Zr1863   2.406       .  S
O1853      C1872   1.271       .  A
O1854     Zr1862   2.377       .  S
O1854      C1873   1.273   1_565  A
O1855      C1872   1.298   1_545  A
O1856     Zr1864   2.428       .  S
O1856      C1871   1.283       .  A
O1857     Zr1862   2.389       .  S
O1857     Zr1864   2.380       .  S
O1858     Zr1863   2.420       .  S
O1858     Zr1864   2.367       .  S
O1858      H1893   0.965       .  S
O1859     Zr1862   2.413       .  S
O1859     Zr1879   2.402       .  S
O1859      H1896   0.964       .  S
O1860     Zr1863   2.438       .  S
O1860     Zr1879   2.343       .  S
Zr1861     O1886   2.439       .  S
Zr1861     O1880   2.435       .  S
Zr1861     O1888   2.408       .  S
Zr1861     O1876   2.389       .  S
Zr1861     O1867   2.394       .  S
Zr1861     O1868   2.412       .  S
Zr1861     O1869   2.384       .  S
Zr1861     O1870   2.394       .  S
Zr1862     O1881   2.443       .  S
Zr1862     O1874   2.436       .  S
Zr1862     O1875   2.424       .  S
Zr1862     O1868   2.395       .  S
Zr1862     O1869   2.334       .  S
Zr1863     O1865   2.436       .  S
Zr1863     O1887   2.436       .  S
Zr1863     O1889   2.506       .  S
Zr1863     O1867   2.382       .  S
Zr1863     O1870   2.375       .  S
Zr1864     O1890   2.436       .  S
Zr1864     O1891   2.436       .  S
Zr1864     O1866   2.438       .  S
Zr1864     O1867   2.414       .  S
Zr1864     O1868   2.398       .  S
O1865      H1902   0.990       .  S
O1866      H1897   0.990       .  S
O1866      H1911   0.990       .  S
O1868      H1894   0.966       .  S
O1869     Zr1879   2.353       .  S
O1870     Zr1879   2.394       .  S
O1870      H1895   0.966       .  S
C1871      C3387   1.476   1_565  S
C1872      C3121   1.514   1_565  S
C1873      C2155   1.534       .  S
O1874      H1910   0.990       .  S
O1875      C1877   1.282       .  A
O1876      C1877   1.276       .  A
C1877      C2256   1.477       .  S
O1878     Zr1879   2.438   1_545  S
O1878      H1907   0.989       .  S
Zr1879     O1882   2.439       .  S
Zr1879     O1883   2.442       .  S
Zr1879     O1884   2.383       .  S
O1880      C1885   1.270       .  A
O1881      H1898   0.990       .  S
O1881      H1913   0.990       .  S
O1882      H1899   0.990       .  S
O1883      H1903   0.989       .  S
O1883      H1912   0.990       .  S
O1884      C1885   1.266       .  A
C1885      C2186   1.470       .  S
O1886      H1905   0.990       .  S
O1886      H1909   0.990       .  S
O1887      H1901   0.990       .  S
O1887      H1908   0.990       .  S
O1888      C1892   1.278       .  A
O1889      C1892   1.297       .  A
O1890      H1900   0.990       .  S
O1891      H1904   0.990       .  S
C1892      C2144   1.510       .  S
Zr1915     O1916   2.436       .  S
Zr1915     O1917   2.465       .  S
Zr1915     O1918   2.591       .  S
Zr1915     O1921   2.510       .  S
Zr1915     O1923   2.381       .  S
Zr1915     O1924   2.433       .  S
Zr1915     O1925   2.417       .  S
Zr1915     O1926   2.410       .  S
O1916      H1972   0.990       .  S
O1916      H1980   0.990       .  S
O1917      C1937   1.290       .  A
O1918      C1939   1.315       .  A
O1919     Zr1929   2.421       .  S
O1919      C1938   1.277       .  A
O1920     Zr1928   2.377       .  S
O1920      C1939   1.272       .  A
O1921      C1938   1.299       .  A
O1922     Zr1930   2.450       .  S
O1922      C1937   1.289       .  A
O1923     Zr1928   2.404       .  S
O1923     Zr1930   2.382       .  S
O1924     Zr1929   2.395       .  S
O1924     Zr1930   2.372       .  S
O1924      H1959   0.963       .  S
O1925     Zr1928   2.397       .  S
O1925     Zr1945   2.416       .  S
O1925      H1962   0.966       .  S
O1926     Zr1929   2.417       .  S
O1926     Zr1945   2.352       .  S
Zr1927     O1952   2.438       .  S
Zr1927     O1946   2.424       .  S
Zr1927     O1954   2.412       .  S
Zr1927     O1942   2.409       .  S
Zr1927     O1933   2.398       .  S
Zr1927     O1934   2.405       .  S
Zr1927     O1935   2.374       .  S
Zr1927     O1936   2.371       .  S
Zr1928     O1947   2.444       .  S
Zr1928     O1940   2.435       .  S
Zr1928     O1941   2.418       .  S
Zr1928     O1934   2.395       .  S
Zr1928     O1935   2.371       .  S
Zr1929     O1931   2.434       .  S
Zr1929     O1953   2.436       .  S
Zr1929     O1955   2.521       .  S
Zr1929     O1933   2.381       .  S
Zr1929     O1936   2.333       .  S
Zr1930     O1956   2.436       .  S
Zr1930     O1957   2.436       .  S
Zr1930     O1932   2.435       .  S
Zr1930     O1933   2.412       .  S
Zr1930     O1934   2.414       .  S
O1931      H1968   0.990       .  S
O1932      H1963   0.990       .  S
O1932      H1977   0.990       .  S
O1934      H1960   0.966       .  S
O1935     Zr1945   2.353       .  S
O1936     Zr1945   2.388       .  S
O1936      H1961   0.963       .  S
C1937      C2690   1.498       .  S
C1938      C2589   1.518       .  S
C1939      C2158   1.535       .  S
O1940      H1976   0.990       .  S
O1941      C1943   1.281       .  A
O1942      C1943   1.283       .  A
C1943      C2214   1.484       .  S
O1944     Zr1945   2.438       .  S
O1944      H1973   0.990       .  S
Zr1945     O1948   2.435       .  S
Zr1945     O1949   2.433       .  S
Zr1945     O1950   2.413       .  S
O1946      C1951   1.284       .  A
O1947      H1964   0.991       .  S
O1947      H1979   0.990       .  S
O1948      H1965   0.990       .  S
O1949      H1969   0.989       .  S
O1949      H1978   0.990       .  S
O1950      C1951   1.284       .  A
C1951      C2295   1.478       .  S
O1952      H1971   0.990       .  S
O1952      H1975   0.990       .  S
O1953      H1967   0.990       .  S
O1953      H1974   0.990       .  S
O1954      C1958   1.280       .  A
O1955      C1958   1.300       .  A
O1956      H1966   0.990       .  S
O1957      H1970   0.990       .  S
C1958      C2127   1.512       .  S
Zr1981     O1982   2.437       .  S
Zr1981     O1983   2.486       .  S
Zr1981     O1984   2.597       .  S
Zr1981     O1987   2.519       .  S
Zr1981     O1989   2.387       .  S
Zr1981     O1990   2.432       .  S
Zr1981     O1991   2.417       .  S
Zr1981     O1992   2.408       .  S
O1982      H2038   0.990       .  S
O1982      H2046   0.990       .  S
O1983      C2003   1.293       .  A
O1984      C2005   1.315       .  A
O1985     Zr1995   2.430       .  S
O1985      C2004   1.279       .  A
O1986     Zr1994   2.361       .  S
O1986      C2005   1.267       .  A
O1987      C2004   1.301       .  A
O1988     Zr1996   2.437       .  S
O1988      C2003   1.284       .  A
O1989     Zr1994   2.402       .  S
O1989     Zr1996   2.384       .  S
O1990     Zr1995   2.415       .  S
O1990     Zr1996   2.373       .  S
O1990      H2025   0.963       .  S
O1991     Zr1994   2.407       .  S
O1991     Zr2011   2.411       .  S
O1991      H2028   0.966       .  S
O1992     Zr1995   2.407       .  S
O1992     Zr2011   2.327       .  S
Zr1993     O2018   2.440       .  S
Zr1993     O2012   2.423       .  S
Zr1993     O2020   2.397       .  S
Zr1993     O2008   2.399       .  S
Zr1993     O1999   2.400       .  S
Zr1993     O2000   2.397       .  S
Zr1993     O2001   2.372       .  S
Zr1993     O2002   2.381       .  S
Zr1994     O2013   2.446       .  S
Zr1994     O2006   2.433       .  S
Zr1994     O2007   2.434       .  S
Zr1994     O2000   2.380       .  S
Zr1994     O2001   2.356       .  S
Zr1995     O1997   2.435       .  S
Zr1995     O2019   2.434       .  S
Zr1995     O2021   2.525       .  S
Zr1995     O1999   2.378       .  S
Zr1995     O2002   2.367       .  S
Zr1996     O2022   2.436       .  S
Zr1996     O2023   2.435       .  S
Zr1996     O1998   2.439       .  S
Zr1996     O1999   2.416       .  S
Zr1996     O2000   2.409       .  S
O1997      H2034   0.990       .  S
O1998      H2029   0.990       .  S
O1998      H2043   0.990       .  S
O2000      H2026   0.966       .  S
O2001     Zr2011   2.366       .  S
O2002     Zr2011   2.384       .  S
O2002      H2027   0.965       .  S
C2003      C3051   1.499       .  S
C2004      C3236   1.521       .  S
C2005      C2113   1.543       .  S
O2006      H2042   0.990       .  S
O2007      C2009   1.282       .  A
O2008      C2009   1.277       .  A
C2009      C2172   1.492       .  S
O2010     Zr2011   2.432       .  S
O2010      H2039   0.990       .  S
Zr2011     O2014   2.433       .  S
Zr2011     O2015   2.439       .  S
Zr2011     O2016   2.391       .  S
O2012      C2017   1.278       .  A
O2013      H2030   0.991       .  S
O2013      H2045   0.991       .  S
O2014      H2031   0.991       .  S
O2015      H2035   0.990       .  S
O2015      H2044   0.990       .  S
O2016      C2017   1.272       .  A
C2017      C2267   1.451       .  S
O2018      H2037   0.990       .  S
O2018      H2041   0.989       .  S
O2019      H2033   0.990       .  S
O2019      H2040   0.990       .  S
O2020      C2024   1.278       .  A
O2021      C2024   1.301       .  A
O2022      H2032   0.990       .  S
O2023      H2036   0.990       .  S
C2024      C2141   1.508       .  S
Zr2047     O2048   2.435       .  S
Zr2047     O2049   2.482       .  S
Zr2047     O2050   2.607       .  S
Zr2047     O2053   2.511       .  S
Zr2047     O2055   2.388       .  S
Zr2047     O2056   2.430       .  S
Zr2047     O2057   2.394       .  S
Zr2047     O2058   2.421       .  S
O2048      H2104   0.990       .  S
O2048      H2112   0.991       .  S
O2049      C2069   1.293       .  A
O2050      C2071   1.317       .  A
O2051     Zr2061   2.418       .  S
O2051      C2070   1.274       .  A
O2052     Zr2060   2.376       .  S
O2052      C2071   1.265       .  A
O2053      C2070   1.298       .  A
O2054     Zr2062   2.433       .  S
O2054      C2069   1.284       .  A
O2055     Zr2060   2.392       .  S
O2055     Zr2062   2.391       .  S
O2056     Zr2061   2.406       .  S
O2056     Zr2062   2.368       .  S
O2056      H2091   0.962       .  S
O2057     Zr2060   2.437       .  S
O2057     Zr2077   2.394       .  S
O2057      H2094   0.963       .  S
O2058     Zr2061   2.434       .  S
O2058     Zr2077   2.343       .  S
Zr2059     O2084   2.437       .  S
Zr2059     O2078   2.412       .  S
Zr2059     O2086   2.427       .  S
Zr2059     O2074   2.405       .  S
Zr2059     O2065   2.401       .  S
Zr2059     O2066   2.409       .  S
Zr2059     O2067   2.411       .  S
Zr2059     O2068   2.410       .  S
Zr2060     O2079   2.447       .  S
Zr2060     O2072   2.435       .  S
Zr2060     O2073   2.417       .  S
Zr2060     O2066   2.398       .  S
Zr2060     O2067   2.357       .  S
Zr2061     O2063   2.438       .  S
Zr2061     O2085   2.437       .  S
Zr2061     O2087   2.503       .  S
Zr2061     O2065   2.386       .  S
Zr2061     O2068   2.376       .  S
Zr2062     O2088   2.436       .  S
Zr2062     O2089   2.436       .  S
Zr2062     O2064   2.438       .  S
Zr2062     O2065   2.411       .  S
Zr2062     O2066   2.406       .  S
O2063      H2100   0.990       .  S
O2064      H2095   0.990       .  S
O2064      H2109   0.990       .  S
O2066      H2092   0.966       .  S
O2067     Zr2077   2.368       .  S
O2068     Zr2077   2.395       .  S
O2068      H2093   0.967       .  S
C2069      C2942   1.494       .  S
C2070      C2729   1.518       .  S
C2071      C2116   1.528       .  S
O2072      H2108   0.989       .  S
O2073      C2075   1.279       .  A
O2074      C2075   1.281       .  A
C2075      C2309   1.459       .  S
O2076     Zr2077   2.441       .  S
O2076      H2105   0.990       .  S
Zr2077     O2080   2.444       .  S
Zr2077     O2081   2.446       .  S
Zr2077     O2082   2.377       .  S
O2078      C2083   1.263       .  A
O2079      H2096   0.990       .  S
O2079      H2111   0.991       .  S
O2080      H2097   0.990       .  S
O2081      H2101   0.986       .  S
O2081      H2110   0.990       .  S
O2082      C2083   1.260       .  A
C2083      C2200   1.467       .  S
O2084      H2103   0.991       .  S
O2084      H2107   0.990       .  S
O2085      H2099   0.990       .  S
O2085      H2106   0.989       .  S
O2086      C2090   1.282       .  A
O2087      C2090   1.297       .  A
O2088      H2098   0.990       .  S
O2089      H2102   0.990       .  S
C2090      C2130   1.517       .  S
C2113      C2114   1.433       .  A
C2113      C2118   1.419       .  A
C2114      C2115   1.426       .  A
C2114      C2119   1.453       .  S
C2115      C2116   1.413       .  A
C2115      C2122   1.452       .  S
C2116      C2117   1.427       .  A
C2117      C2118   1.442       .  A
C2117      C2120   1.447       .  S
C2118      C2121   1.447       .  S
C2119      N2126   1.157       .  T
C2120      N2125   1.157       .  T
C2121      N2123   1.157       .  T
C2122      N2124   1.157       .  T
C2127      C2128   1.414       .  A
C2127      C2132   1.415       .  A
C2128      C2129   1.424       .  A
C2128      C2133   1.449       .  S
C2129      C2130   1.420   1_455  A
C2129      C2136   1.450       .  S
C2130      C2131   1.417       .  A
C2131      C2132   1.426   1_655  A
C2131      C2134   1.449       .  S
C2132      C2135   1.448       .  S
C2133      N2140   1.157       .  T
C2134      N2139   1.157       .  T
C2135      N2137   1.157       .  T
C2136      N2138   1.157       .  T
C2141      C2142   1.415       .  A
C2141      C2146   1.418       .  A
C2142      C2143   1.424       .  A
C2142      C2147   1.450       .  S
C2143      C2144   1.420       .  A
C2143      C2150   1.450       .  S
C2144      C2145   1.414       .  A
C2145      C2146   1.421       .  A
C2145      C2148   1.450       .  S
C2146      C2149   1.450       .  S
C2147      N2154   1.157       .  T
C2148      N2153   1.157       .  T
C2149      N2151   1.157       .  T
C2150      N2152   1.157       .  T
C2155      C2156   1.422       .  A
C2155      C2160   1.421       .  A
C2156      C2157   1.444       .  A
C2156      C2161   1.447       .  S
C2157      C2158   1.424       .  A
C2157      C2164   1.446       .  S
C2158      C2159   1.421       .  A
C2159      C2160   1.422       .  A
C2159      C2162   1.452       .  S
C2160      C2163   1.454       .  S
C2161      N2168   1.157       .  T
C2162      N2167   1.157       .  T
C2163      N2165   1.157   1_545  T
C2164      N2166   1.157       .  T
C2169      C2170   1.401       .  A
C2169      C2174   1.400       .  A
C2170      C2171   1.404       .  A
C2170      C2175   1.453       .  S
C2171      C2172   1.423       .  A
C2171      C2178   1.448       .  S
C2172      C2173   1.428       .  A
C2173      C2174   1.403       .  A
C2173      C2176   1.451       .  S
C2174      C2177   1.454       .  S
C2175      N2182   1.157       .  T
C2176      N2181   1.157       .  T
C2177      N2179   1.157       .  T
C2178      N2180   1.157       .  T
C2183      C2184   1.400       .  A
C2183      C2188   1.412       .  A
C2184      C2185   1.386       .  A
C2184      C2189   1.456       .  S
C2185      C2186   1.417       .  A
C2185      C2192   1.454       .  S
C2186      C2187   1.413       .  A
C2187      C2188   1.411       .  A
C2187      C2190   1.449       .  S
C2188      C2191   1.450       .  S
C2189      N2196   1.157       .  T
C2190      N2195   1.157       .  T
C2191      N2193   1.157       .  T
C2192      N2194   1.157       .  T
C2197      C2198   1.398       .  A
C2197      C2202   1.405       .  A
C2198      C2199   1.394       .  A
C2198      C2203   1.455       .  S
C2199      C2200   1.426       .  A
C2199      C2206   1.456       .  S
C2200      C2201   1.413       .  A
C2201      C2202   1.400       .  A
C2201      C2204   1.450       .  S
C2202      C2205   1.453       .  S
C2203      N2210   1.157       .  T
C2204      N2209   1.157       .  T
C2205      N2207   1.157       .  T
C2206      N2208   1.158       .  T
C2211      C2212   1.412       .  A
C2211      C2216   1.420       .  A
C2212      C2213   1.400       .  A
C2212      C2217   1.447       .  S
C2213      C2214   1.407       .  A
C2213      C2220   1.444       .  S
C2214      C2215   1.406       .  A
C2215      C2216   1.405       .  A
C2215      C2218   1.450       .  S
C2216      C2219   1.450       .  S
C2217      N2224   1.156   1_455  T
C2218      N2223   1.157       .  T
C2219      N2221   1.157       .  T
C2220      N2222   1.154       .  T
C2225      C2226   1.411       .  A
C2225      C2230   1.434       .  A
C2226      C2227   1.434       .  A
C2226      C2231   1.447       .  S
C2227      C2228   1.434       .  A
C2227      C2234   1.448       .  S
C2228      C2229   1.417       .  A
C2229      C2230   1.438       .  A
C2229      C2232   1.448       .  S
C2230      C2233   1.450       .  S
C2231      N2238   1.157       .  T
C2232      N2237   1.158       .  T
C2233      N2235   1.158       .  T
C2234      N2236   1.157       .  T
C2239      C2240   1.412       .  A
C2239      C2244   1.418       .  A
C2240      C2241   1.427       .  A
C2240      C2245   1.449       .  S
C2241      C2242   1.426       .  A
C2241      C2248   1.450       .  S
C2242      C2243   1.417       .  A
C2243      C2244   1.427       .  A
C2243      C2246   1.448       .  S
C2244      C2247   1.449       .  S
C2245      N2252   1.157       .  T
C2246      N2251   1.157       .  T
C2247      N2249   1.157       .  T
C2248      N2250   1.157       .  T
C2253      C2254   1.403       .  A
C2253      C2258   1.404       .  A
C2254      C2255   1.400       .  A
C2254      C2259   1.455       .  S
C2255      C2256   1.425       .  A
C2255      C2262   1.452       .  S
C2256      C2257   1.419       .  A
C2257      C2258   1.400       .  A
C2257      C2260   1.452       .  S
C2258      C2261   1.453       .  S
C2259      N2266   1.157       .  T
C2260      N2265   1.157       .  T
C2261      N2263   1.157       .  T
C2262      N2264   1.157       .  T
C2267      C2268   1.407       .  A
C2267      C2272   1.411       .  A
C2268      C2269   1.406       .  A
C2268      C2273   1.450       .  S
C2269      C2270   1.411       .  A
C2269      C2276   1.450       .  S
C2270      C2271   1.401       .  A
C2271      C2272   1.391       .  A
C2271      C2274   1.456       .  S
C2272      C2275   1.448       .  S
C2273      N2280   1.157       .  T
C2274      N2279   1.157       .  T
C2275      N2277   1.155       .  T
C2276      N2278   1.157       .  T
C2281      C2282   1.414   1_455  A
C2281      C2286   1.419       .  A
C2282      C2283   1.427       .  A
C2282      C2287   1.450       .  S
C2283      C2284   1.425       .  A
C2283      C2290   1.449       .  S
C2284      C2285   1.419   1_655  A
C2285      C2286   1.432       .  A
C2285      C2288   1.445       .  S
C2286      C2289   1.450       .  S
C2287      N2294   1.157       .  T
C2288      N2293   1.156       .  T
C2289      N2291   1.157       .  T
C2290      N2292   1.157       .  T
C2295      C2296   1.404       .  A
C2295      C2300   1.406       .  A
C2296      C2297   1.404       .  A
C2296      C2301   1.451       .  S
C2297      C2298   1.417       .  A
C2297      C2304   1.449       .  S
C2298      C2299   1.416       .  A
C2299      C2300   1.400       .  A
C2299      C2302   1.449       .  S
C2300      C2303   1.450       .  S
C2301      N2308   1.158       .  T
C2302      N2307   1.157       .  T
C2303      N2305   1.157       .  T
C2304      N2306   1.157       .  T
C2309      C2310   1.405       .  A
C2309      C2314   1.405       .  A
C2310      C2311   1.400       .  A
C2310      C2315   1.453       .  S
C2311      C2312   1.420       .  A
C2311      C2318   1.452       .  S
C2312      C2313   1.413       .  A
C2313      C2314   1.401       .  A
C2313      C2316   1.452       .  S
C2314      C2317   1.445       .  S
C2315      N2322   1.157       .  T
C2316      N2321   1.157   1_655  T
C2317      N2319   1.155       .  T
C2318      N2320   1.157       .  T
C2323      C2324   1.418       .  A
C2323      C2328   1.427       .  A
C2324      C2325   1.440       .  A
C2324      C2329   1.447       .  S
C2325      C2326   1.427       .  A
C2325      C2332   1.447       .  S
C2326      C2327   1.414       .  A
C2327      C2328   1.424       .  A
C2327      C2330   1.449       .  S
C2328      C2331   1.453       .  S
C2329      N2336   1.157       .  T
C2330      N2335   1.157       .  T
C2331      N2333   1.157       .  T
C2332      N2334   1.157       .  T
C2337      C2338   1.436       .  A
C2337      C2342   1.412       .  A
C2338      C2339   1.438       .  A
C2338      C2343   1.450       .  S
C2339      C2340   1.415       .  A
C2339      C2346   1.448       .  S
C2340      C2341   1.436       .  A
C2341      C2342   1.438       .  A
C2341      C2344   1.447       .  S
C2342      C2345   1.447       .  S
C2343      N2350   1.157       .  T
C2344      N2349   1.157       .  T
C2345      N2347   1.157       .  T
C2346      N2348   1.157       .  T
C2351      C2352   1.416       .  A
C2351      C2356   1.420       .  A
C2352      C2353   1.428       .  A
C2352      C2357   1.449       .  S
C2353      C2354   1.423       .  A
C2353      C2360   1.450       .  S
C2354      C2355   1.417       .  A
C2355      C2356   1.428       .  A
C2355      C2358   1.449       .  S
C2356      C2359   1.449       .  S
C2357      N2364   1.157       .  T
C2358      N2363   1.157       .  T
C2359      N2361   1.157       .  T
C2360      N2362   1.157       .  T
C2365      C2366   1.427   1_655  A
C2365      C2370   1.418       .  A
C2366      C2367   1.428       .  A
C2366      C2371   1.450       .  S
C2367      C2368   1.413       .  A
C2367      C2374   1.449       .  S
C2368      C2369   1.423       .  A
C2369      C2370   1.432   1_455  A
C2369      C2372   1.449       .  S
C2370      C2373   1.448       .  S
C2371      N2378   1.157       .  T
C2372      N2377   1.157       .  T
C2373      N2375   1.157       .  T
C2374      N2376   1.157       .  T
C2379      C2380   1.416       .  A
C2379      C2384   1.435       .  A
C2380      C2381   1.436       .  A
C2380      C2385   1.448       .  S
C2381      C2382   1.432       .  A
C2381      C2388   1.450       .  S
C2382      C2383   1.410       .  A
C2383      C2384   1.435       .  A
C2383      C2386   1.447       .  S
C2384      C2387   1.449       .  S
C2385      N2392   1.157       .  T
C2386      N2391   1.157       .  T
C2387      N2389   1.157       .  T
C2388      N2390   1.157       .  T
C2393      C2394   1.407       .  A
C2393      C2398   1.401       .  A
C2394      C2395   1.403       .  A
C2394      C2399   1.452       .  S
C2395      C2396   1.418       .  A
C2395      C2402   1.451       .  S
C2396      C2397   1.423       .  A
C2397      C2398   1.402       .  A
C2397      C2400   1.450       .  S
C2398      C2401   1.454       .  S
C2399      N2406   1.157       .  T
C2400      N2405   1.157       .  T
C2401      N2403   1.158       .  T
C2402      N2404   1.157       .  T
C2407      C2408   1.404       .  A
C2407      C2412   1.411       .  A
C2408      C2409   1.405       .  A
C2408      C2413   1.451       .  S
C2409      C2410   1.411       .  A
C2409      C2416   1.450       .  S
C2410      C2411   1.400       .  A
C2411      C2412   1.389       .  A
C2411      C2414   1.456       .  S
C2412      C2415   1.449       .  S
C2413      N2420   1.158       .  T
C2414      N2419   1.157       .  T
C2415      N2417   1.156   1_455  T
C2416      N2418   1.157       .  T
C2421      C2422   1.416       .  A
C2421      C2426   1.408       .  A
C2422      C2423   1.407       .  A
C2422      C2427   1.451       .  S
C2423      C2424   1.413       .  A
C2423      C2430   1.451       .  S
C2424      C2425   1.414       .  A
C2425      C2426   1.401       .  A
C2425      C2428   1.441       .  S
C2426      C2429   1.452       .  S
C2427      N2434   1.158       .  T
C2428      N2433   1.154       .  T
C2429      N2431   1.157       .  T
C2430      N2432   1.157       .  T
C2435      C2436   1.401       .  A
C2435      C2440   1.407       .  A
C2436      C2437   1.401       .  A
C2436      C2441   1.444       .  S
C2437      C2438   1.414       .  A
C2437      C2444   1.449       .  S
C2438      C2439   1.414       .  A
C2439      C2440   1.398       .  A
C2439      C2442   1.450       .  S
C2440      C2443   1.449       .  S
C2441      N2448   1.155       .  T
C2442      N2447   1.157       .  T
C2443      N2445   1.157       .  T
C2444      N2446   1.157       .  T
C2449      C2450   1.423       .  A
C2449      C2454   1.427       .  A
C2450      C2451   1.430       .  A
C2450      C2455   1.451       .  S
C2451      C2452   1.424       .  A
C2451      C2458   1.452       .  S
C2452      C2453   1.424       .  A
C2453      C2454   1.449       .  A
C2453      C2456   1.447       .  S
C2454      C2457   1.446       .  S
C2455      N2462   1.157       .  T
C2456      N2461   1.157       .  T
C2457      N2459   1.157       .  T
C2458      N2460   1.157       .  T
C2463      C2464   1.417       .  A
C2463      C2468   1.415   1_455  A
C2464      C2465   1.423       .  A
C2464      C2469   1.450       .  S
C2465      C2466   1.416   1_455  A
C2465      C2472   1.449       .  S
C2466      C2467   1.420       .  A
C2467      C2468   1.424       .  A
C2467      C2470   1.450       .  S
C2468      C2471   1.450       .  S
C2469      N2476   1.157       .  T
C2470      N2475   1.157       .  T
C2471      N2473   1.157       .  T
C2472      N2474   1.157       .  T
C2477      C2478   1.413   1_455  A
C2477      C2482   1.421       .  A
C2478      C2479   1.407       .  A
C2478      C2483   1.450       .  S
C2479      C2480   1.409       .  A
C2479      C2486   1.450       .  S
C2480      C2481   1.402       .  A
C2481      C2482   1.392   1_655  A
C2481      C2484   1.455       .  S
C2482      C2485   1.456       .  S
C2483      N2490   1.157       .  T
C2484      N2489   1.157       .  T
C2485      N2487   1.157       .  T
C2486      N2488   1.157       .  T
C2491      C2492   1.421       .  A
C2491      C2496   1.426       .  A
C2492      C2493   1.403       .  A
C2492      C2497   1.450       .  S
C2493      C2494   1.404       .  A
C2493      C2500   1.453       .  S
C2494      C2495   1.403       .  A
C2495      C2496   1.402       .  A
C2495      C2498   1.455       .  S
C2496      C2499   1.451       .  S
C2497      N2504   1.157       .  T
C2498      N2503   1.157       .  T
C2499      N2501   1.157       .  T
C2500      N2502   1.157       .  T
C2505      C2506   1.419       .  A
C2505      C2510   1.413       .  A
C2506      C2507   1.403       .  A
C2506      C2511   1.451       .  S
C2507      C2508   1.410       .  A
C2507      C2514   1.451       .  S
C2508      C2509   1.411       .  A
C2509      C2510   1.405       .  A
C2509      C2512   1.447       .  S
C2510      C2513   1.448       .  S
C2511      N2518   1.157       .  T
C2512      N2517   1.156       .  T
C2513      N2515   1.157       .  T
C2514      N2516   1.157       .  T
C2519      C2520   1.416       .  A
C2519      C2524   1.420       .  A
C2520      C2521   1.425       .  A
C2520      C2525   1.450       .  S
C2521      C2522   1.420       .  A
C2521      C2528   1.450       .  S
C2522      C2523   1.418       .  A
C2523      C2524   1.430       .  A
C2523      C2526   1.449       .  S
C2524      C2527   1.450       .  S
C2525      N2532   1.157       .  T
C2526      N2531   1.157       .  T
C2527      N2529   1.157       .  T
C2528      N2530   1.157       .  T
C2533      C2534   1.402       .  A
C2533      C2538   1.411       .  A
C2534      C2535   1.401       .  A
C2534      C2539   1.442       .  S
C2535      C2536   1.411       .  A
C2535      C2542   1.448       .  S
C2536      C2537   1.410       .  A
C2537      C2538   1.399       .  A
C2537      C2540   1.449       .  S
C2538      C2541   1.450       .  S
C2539      N2546   1.155       .  T
C2540      N2545   1.157       .  T
C2541      N2543   1.157       .  T
C2542      N2544   1.157       .  T
C2547      C2548   1.422       .  A
C2547      C2552   1.425       .  A
C2548      C2549   1.426       .  A
C2548      C2553   1.452       .  S
C2549      C2550   1.426       .  A
C2549      C2556   1.454   1_565  S
C2550      C2551   1.426       .  A
C2551      C2552   1.450       .  A
C2551      C2554   1.445       .  S
C2552      C2555   1.445       .  S
C2553      N2560   1.157       .  T
C2554      N2559   1.157       .  T
C2555      N2557   1.157       .  T
C2556      N2558   1.157       .  T
C2561      C2562   1.427   1_554  A
C2561      C2566   1.418       .  A
C2562      C2563   1.422       .  A
C2562      C2567   1.452       .  S
C2563      C2564   1.415   1_455  A
C2563      C2570   1.451       .  S
C2564      C2565   1.420   1_556  A
C2565      C2566   1.417   1_655  A
C2565      C2568   1.453       .  S
C2566      C2569   1.451       .  S
C2567      N2574   1.158       .  T
C2568      N2573   1.157       .  T
C2569      N2571   1.157       .  T
C2570      N2572   1.157   1_455  T
C2575      C2576   1.414       .  A
C2575      C2580   1.413   1_554  A
C2576      C2577   1.420       .  A
C2576      C2581   1.450       .  S
C2577      C2578   1.416   1_554  A
C2577      C2584   1.449       .  S
C2578      C2579   1.414       .  A
C2579      C2580   1.417       .  A
C2579      C2582   1.450       .  S
C2580      C2583   1.450       .  S
C2581      N2588   1.157       .  T
C2582      N2587   1.157       .  T
C2583      N2585   1.157       .  T
C2584      N2586   1.157       .  T
C2589      C2590   1.421       .  A
C2589      C2594   1.418       .  A
C2590      C2591   1.417       .  A
C2590      C2595   1.453       .  S
C2591      C2592   1.421       .  A
C2591      C2598   1.451       .  S
C2592      C2593   1.424       .  A
C2593      C2594   1.421       .  A
C2593      C2596   1.452       .  S
C2594      C2597   1.450       .  S
C2595      N2602   1.157       .  T
C2596      N2601   1.158       .  T
C2597      N2599   1.157       .  T
C2598      N2600   1.157       .  T
C2603      C2604   1.412       .  A
C2603      C2608   1.416       .  A
C2604      C2605   1.409       .  A
C2604      C2609   1.451       .  S
C2605      C2606   1.412       .  A
C2605      C2612   1.450       .  S
C2606      C2607   1.411       .  A
C2607      C2608   1.418       .  A
C2607      C2610   1.450       .  S
C2608      C2611   1.450       .  S
C2609      N2616   1.157       .  T
C2610      N2615   1.157       .  T
C2611      N2613   1.157       .  T
C2612      N2614   1.156       .  T
C2617      C2618   1.412       .  A
C2617      C2622   1.437       .  A
C2618      C2619   1.440       .  A
C2618      C2623   1.447       .  S
C2619      C2620   1.439       .  A
C2619      C2626   1.449       .  S
C2620      C2621   1.414       .  A
C2621      C2622   1.436       .  A
C2621      C2624   1.449       .  S
C2622      C2625   1.450       .  S
C2623      N2630   1.157       .  T
C2624      N2629   1.157       .  T
C2625      N2627   1.157       .  T
C2626      N2628   1.157       .  T
C2631      C2632   1.411   1_545  A
C2631      C2636   1.419   1_554  A
C2632      C2633   1.421       .  A
C2632      C2637   1.450       .  S
C2633      C2634   1.428   1_564  A
C2633      C2640   1.451       .  S
C2634      C2635   1.421       .  A
C2635      C2636   1.418       .  A
C2635      C2638   1.451       .  S
C2636      C2639   1.453       .  S
C2637      N2644   1.157       .  T
C2638      N2643   1.158       .  T
C2639      N2641   1.157       .  T
C2640      N2642   1.157       .  T
C2645      C2646   1.413       .  A
C2645      C2650   1.417   1_554  A
C2646      C2647   1.416       .  A
C2646      C2651   1.450       .  S
C2647      C2648   1.414   1_554  A
C2647      C2654   1.449       .  S
C2648      C2649   1.413       .  A
C2649      C2650   1.418       .  A
C2649      C2652   1.450       .  S
C2650      C2653   1.451       .  S
C2651      N2658   1.157       .  T
C2652      N2657   1.157       .  T
C2653      N2655   1.158       .  T
C2654      N2656   1.157       .  T
C2659      C2660   1.408       .  A
C2659      C2664   1.408       .  A
C2660      C2661   1.406       .  A
C2660      C2665   1.447       .  S
C2661      C2662   1.406       .  A
C2661      C2668   1.441       .  S
C2662      C2663   1.413       .  A
C2663      C2664   1.399       .  A
C2663      C2666   1.449       .  S
C2664      C2667   1.452       .  S
C2665      N2672   1.157       .  T
C2666      N2671   1.157       .  T
C2667      N2669   1.157       .  T
C2668      N2670   1.155       .  T
C2673      C2674   1.421       .  A
C2673      C2678   1.420       .  A
C2674      C2675   1.416       .  A
C2674      C2679   1.450       .  S
C2675      C2676   1.413       .  A
C2675      C2682   1.449       .  S
C2676      C2677   1.425       .  A
C2677      C2678   1.421       .  A
C2677      C2680   1.452       .  S
C2678      C2681   1.452       .  S
C2679      N2686   1.157       .  T
C2680      N2685   1.157       .  T
C2681      N2683   1.158       .  T
C2682      N2684   1.157       .  T
C2687      C2688   1.416       .  A
C2687      C2692   1.410   1_565  A
C2688      C2689   1.412       .  A
C2688      C2693   1.447       .  S
C2689      C2690   1.410   1_565  A
C2689      C2696   1.452       .  S
C2690      C2691   1.421       .  A
C2691      C2692   1.420       .  A
C2691      C2694   1.449       .  S
C2692      C2695   1.450       .  S
C2693      N2700   1.156       .  T
C2694      N2699   1.157       .  T
C2695      N2697   1.157       .  T
C2696      N2698   1.157       .  T
C2701      C2702   1.412       .  A
C2701      C2706   1.408       .  A
C2702      C2703   1.403       .  A
C2702      C2707   1.448       .  S
C2703      C2704   1.403       .  A
C2703      C2710   1.446       .  S
C2704      C2705   1.419       .  A
C2705      C2706   1.397       .  A
C2705      C2708   1.453       .  S
C2706      C2709   1.452       .  S
C2707      N2714   1.157       .  T
C2708      N2713   1.157       .  T
C2709      N2711   1.157       .  T
C2710      N2712   1.156       .  T
C2715      C2716   1.430       .  A
C2715      C2720   1.420       .  A
C2716      C2717   1.428       .  A
C2716      C2721   1.452       .  S
C2717      C2718   1.414       .  A
C2717      C2724   1.450   1_565  S
C2718      C2719   1.429       .  A
C2719      C2720   1.443       .  A
C2719      C2722   1.448       .  S
C2720      C2723   1.447       .  S
C2721      N2728   1.157   1_565  T
C2722      N2727   1.157       .  T
C2723      N2725   1.157       .  T
C2724      N2726   1.157       .  T
C2729      C2730   1.425       .  A
C2729      C2734   1.422       .  A
C2730      C2731   1.415       .  A
C2730      C2735   1.454       .  S
C2731      C2732   1.419       .  A
C2731      C2738   1.452       .  S
C2732      C2733   1.420       .  A
C2733      C2734   1.422       .  A
C2733      C2736   1.452       .  S
C2734      C2737   1.450       .  S
C2735      N2742   1.157       .  T
C2736      N2741   1.157       .  T
C2737      N2739   1.157       .  T
C2738      N2740   1.157       .  T
C2743      C2744   1.415       .  A
C2743      C2748   1.413   1_545  A
C2744      C2745   1.417       .  A
C2744      C2749   1.450       .  S
C2745      C2746   1.412   1_545  A
C2745      C2752   1.451       .  S
C2746      C2747   1.413       .  A
C2747      C2748   1.416       .  A
C2747      C2750   1.449       .  S
C2748      C2751   1.450       .  S
C2749      N2756   1.157       .  T
C2750      N2755   1.157       .  T
C2751      N2753   1.157       .  T
C2752      N2754   1.157       .  T
C2757      C2758   1.422       .  A
C2757      C2762   1.416       .  A
C2758      C2759   1.429       .  A
C2758      C2763   1.449       .  S
C2759      C2760   1.415       .  A
C2759      C2766   1.450       .  S
C2760      C2761   1.423       .  A
C2761      C2762   1.432       .  A
C2761      C2764   1.449       .  S
C2762      C2765   1.448       .  S
C2763      N2770   1.157       .  T
C2764      N2769   1.157       .  T
C2765      N2767   1.157       .  T
C2766      N2768   1.157       .  T
C2771      C2772   1.412       .  A
C2771      C2776   1.407       .  A
C2772      C2773   1.401       .  A
C2772      C2777   1.451       .  S
C2773      C2774   1.415       .  A
C2773      C2780   1.452       .  S
C2774      C2775   1.423       .  A
C2775      C2776   1.401       .  A
C2775      C2778   1.451       .  S
C2776      C2779   1.454       .  S
C2777      N2784   1.157       .  T
C2778      N2783   1.156       .  T
C2779      N2781   1.157       .  T
C2780      N2782   1.157       .  T
C2785      C2786   1.423   1_544  A
C2785      C2790   1.416   1_655  A
C2786      C2787   1.425   1_655  A
C2786      C2791   1.451       .  S
C2787      C2788   1.418   1_565  A
C2787      C2794   1.449       .  S
C2788      C2789   1.426   1_556  A
C2789      C2790   1.418       .  A
C2789      C2792   1.454       .  S
C2790      C2793   1.450       .  S
C2791      N2798   1.157       .  T
C2792      N2797   1.157       .  T
C2793      N2795   1.157   1_455  T
C2794      N2796   1.157       .  T
C2799      C2800   1.415       .  A
C2799      C2804   1.417   1_554  A
C2800      C2801   1.418       .  A
C2800      C2805   1.450       .  S
C2801      C2802   1.413   1_554  A
C2801      C2808   1.448       .  S
C2802      C2803   1.415       .  A
C2803      C2804   1.424       .  A
C2803      C2806   1.449       .  S
C2804      C2807   1.448       .  S
C2805      N2812   1.157       .  T
C2806      N2811   1.157       .  T
C2807      N2809   1.157   1_565  T
C2808      N2810   1.156       .  T
C2813      C2814   1.411       .  A
C2813      C2818   1.409       .  A
C2814      C2815   1.403       .  A
C2814      C2819   1.451       .  S
C2815      C2816   1.416       .  A
C2815      C2822   1.451       .  S
C2816      C2817   1.416       .  A
C2817      C2818   1.404       .  A
C2817      C2820   1.449       .  S
C2818      C2821   1.447       .  S
C2819      N2826   1.157       .  T
C2820      N2825   1.157       .  T
C2821      N2823   1.156       .  T
C2822      N2824   1.157       .  T
C2827      C2828   1.426       .  A
C2827      C2832   1.419       .  A
C2828      C2829   1.428       .  A
C2828      C2833   1.451       .  S
C2829      C2830   1.415       .  A
C2829      C2836   1.449       .  S
C2830      C2831   1.430       .  A
C2831      C2832   1.443       .  A
C2831      C2834   1.447       .  S
C2832      C2835   1.447       .  S
C2833      N2840   1.157       .  T
C2834      N2839   1.157       .  T
C2835      N2837   1.157       .  T
C2836      N2838   1.157       .  T
C2841      C2842   1.416   1_655  A
C2841      C2846   1.420       .  A
C2842      C2843   1.426       .  A
C2842      C2847   1.450       .  S
C2843      C2844   1.421       .  A
C2843      C2850   1.449       .  S
C2844      C2845   1.418   1_455  A
C2845      C2846   1.429       .  A
C2845      C2848   1.447       .  S
C2846      C2849   1.450       .  S
C2847      N2854   1.157       .  T
C2848      N2853   1.157       .  T
C2849      N2851   1.157       .  T
C2850      N2852   1.157       .  T
C2855      C2856   1.417       .  A
C2855      C2860   1.425   1_554  A
C2856      C2857   1.424       .  A
C2856      C2861   1.450       .  S
C2857      C2858   1.426   1_554  A
C2857      C2864   1.451       .  S
C2858      C2859   1.418       .  A
C2859      C2860   1.419       .  A
C2859      C2862   1.451       .  S
C2860      C2863   1.453       .  S
C2861      N2868   1.157       .  T
C2862      N2867   1.157       .  T
C2863      N2865   1.157       .  T
C2864      N2866   1.157       .  T
C2869      C2870   1.410       .  A
C2869      C2874   1.417       .  A
C2870      C2871   1.412       .  A
C2870      C2875   1.450       .  S
C2871      C2872   1.413   1_556  A
C2871      C2878   1.450       .  S
C2872      C2873   1.408       .  A
C2873      C2874   1.409   1_554  A
C2873      C2876   1.452       .  S
C2874      C2877   1.451   1_556  S
C2875      N2882   1.157       .  T
C2876      N2881   1.157       .  T
C2877      N2879   1.157       .  T
C2878      N2880   1.157       .  T
C2883      C2884   1.418       .  A
C2883      C2888   1.416       .  A
C2884      C2885   1.424       .  A
C2884      C2889   1.451       .  S
C2885      C2886   1.417       .  A
C2885      C2892   1.447       .  S
C2886      C2887   1.419       .  A
C2887      C2888   1.428       .  A
C2887      C2890   1.449       .  S
C2888      C2891   1.449       .  S
C2889      N2896   1.157       .  T
C2890      N2895   1.157       .  T
C2891      N2893   1.157       .  T
C2892      N2894   1.156       .  T
C2897      C2898   1.406       .  A
C2897      C2902   1.409       .  A
C2898      C2899   1.399       .  A
C2898      C2903   1.448       .  S
C2899      C2900   1.406       .  A
C2899      C2906   1.450       .  S
C2900      C2901   1.403       .  A
C2901      C2902   1.384       .  A
C2901      C2904   1.456       .  S
C2902      C2905   1.455       .  S
C2903      N2910   1.156       .  T
C2904      N2909   1.157       .  T
C2905      N2907   1.157       .  T
C2906      N2908   1.157       .  T
C2911      C2912   1.419       .  A
C2911      C2916   1.411       .  A
C2912      C2913   1.414       .  A
C2912      C2917   1.447       .  S
C2913      C2914   1.408       .  A
C2913      C2920   1.449       .  S
C2914      C2915   1.398       .  A
C2915      C2916   1.375       .  A
C2915      C2918   1.452       .  S
C2916      C2919   1.451       .  S
C2917      N2924   1.157       .  T
C2918      N2923   1.157       .  T
C2919      N2921   1.157       .  T
C2920      N2922   1.157       .  T
C2925      C2926   1.418       .  A
C2925      C2930   1.415       .  A
C2926      C2927   1.415       .  A
C2926      C2931   1.454       .  S
C2927      C2928   1.422       .  A
C2927      C2934   1.451       .  S
C2928      C2929   1.423       .  A
C2929      C2930   1.416       .  A
C2929      C2932   1.452       .  S
C2930      C2933   1.451       .  S
C2931      N2938   1.158       .  T
C2932      N2937   1.157       .  T
C2933      N2935   1.157       .  T
C2934      N2936   1.157       .  T
C2939      C2940   1.421       .  A
C2939      C2944   1.411       .  A
C2940      C2941   1.417       .  A
C2940      C2945   1.448       .  S
C2941      C2942   1.408       .  A
C2941      C2948   1.451       .  S
C2942      C2943   1.416       .  A
C2943      C2944   1.417       .  A
C2943      C2946   1.447       .  S
C2944      C2947   1.451       .  S
C2945      N2952   1.156       .  T
C2946      N2951   1.156       .  T
C2947      N2949   1.157       .  T
C2948      N2950   1.157       .  T
C2953      C2954   1.419   1_655  A
C2953      C2958   1.416       .  A
C2954      C2955   1.424       .  A
C2954      C2959   1.450       .  S
C2955      C2956   1.415       .  A
C2955      C2962   1.450       .  S
C2956      C2957   1.418       .  A
C2957      C2958   1.425   1_455  A
C2957      C2960   1.449       .  S
C2958      C2961   1.449       .  S
C2959      N2966   1.157       .  T
C2960      N2965   1.157       .  T
C2961      N2963   1.157       .  T
C2962      N2964   1.157       .  T
C2967      C2968   1.413       .  A
C2967      C2972   1.407       .  A
C2968      C2969   1.402       .  A
C2968      C2973   1.451       .  S
C2969      C2970   1.412       .  A
C2969      C2976   1.450       .  S
C2970      C2971   1.417       .  A
C2971      C2972   1.401       .  A
C2971      C2974   1.444   1_655  S
C2972      C2975   1.452       .  S
C2973      N2980   1.157       .  T
C2974      N2979   1.155       .  T
C2975      N2977   1.157       .  T
C2976      N2978   1.157       .  T
C2981      C2982   1.412       .  A
C2981      C2986   1.412       .  A
C2982      C2983   1.401       .  A
C2982      C2987   1.449       .  S
C2983      C2984   1.409       .  A
C2983      C2990   1.449       .  S
C2984      C2985   1.406       .  A
C2985      C2986   1.402       .  A
C2985      C2988   1.446       .  S
C2986      C2989   1.450       .  S
C2987      N2994   1.157       .  T
C2988      N2993   1.156   1_655  T
C2989      N2991   1.157   1_655  T
C2990      N2992   1.157       .  T
C2995      C2996   1.418       .  A
C2995      C3000   1.423       .  A
C2996      C2997   1.436       .  A
C2996      C3001   1.447       .  S
C2997      C2998   1.423       .  A
C2997      C3004   1.448       .  S
C2998      C2999   1.417       .  A
C2999      C3000   1.423       .  A
C2999      C3002   1.452       .  S
C3000      C3003   1.453       .  S
C3001      N3008   1.157       .  T
C3002      N3007   1.157       .  T
C3003      N3005   1.157       .  T
C3004      N3006   1.157       .  T
C3009      C3010   1.424       .  A
C3009      C3014   1.420       .  A
C3010      C3011   1.418       .  A
C3010      C3015   1.452       .  S
C3011      C3012   1.413       .  A
C3011      C3018   1.448       .  S
C3012      C3013   1.422       .  A
C3013      C3014   1.420       .  A
C3013      C3016   1.451       .  S
C3014      C3017   1.452       .  S
C3015      N3022   1.157       .  T
C3016      N3021   1.157       .  T
C3017      N3019   1.158       .  T
C3018      N3020   1.157       .  T
C3023      C3024   1.413       .  A
C3023      C3028   1.423       .  A
C3024      C3025   1.407       .  A
C3024      C3029   1.453       .  S
C3025      C3026   1.413       .  A
C3025      C3032   1.450       .  S
C3026      C3027   1.406       .  A
C3027      C3028   1.417       .  A
C3027      C3030   1.451       .  S
C3028      C3031   1.450       .  S
C3029      N3036   1.157       .  T
C3030      N3035   1.157       .  T
C3031      N3033   1.157       .  T
C3032      N3034   1.156       .  T
C3037      C3038   1.420   1_655  A
C3037      C3042   1.426   1_655  A
C3038      C3039   1.427       .  A
C3038      C3043   1.449       .  S
C3039      C3040   1.423       .  A
C3039      C3046   1.450       .  S
C3040      C3041   1.418       .  A
C3041      C3042   1.419       .  A
C3041      C3044   1.451       .  S
C3042      C3045   1.454   1_455  S
C3043      N3050   1.157       .  T
C3044      N3049   1.157       .  T
C3045      N3047   1.158       .  T
C3046      N3048   1.157       .  T
C3051      C3052   1.416       .  A
C3051      C3056   1.414       .  A
C3052      C3053   1.415       .  A
C3052      C3057   1.449       .  S
C3053      C3054   1.411       .  A
C3053      C3060   1.451       .  S
C3054      C3055   1.417       .  A
C3055      C3056   1.421       .  A
C3055      C3058   1.451       .  S
C3056      C3059   1.449       .  S
C3057      N3064   1.157       .  T
C3058      N3063   1.158       .  T
C3059      N3061   1.157       .  T
C3060      N3062   1.157       .  T
C3065      C3066   1.422       .  A
C3065      C3070   1.430       .  A
C3066      C3067   1.443       .  A
C3066      C3071   1.446       .  S
C3067      C3068   1.427       .  A
C3067      C3074   1.448       .  S
C3068      C3069   1.417       .  A
C3069      C3070   1.431       .  A
C3069      C3072   1.452       .  S
C3070      C3073   1.451       .  S
C3071      N3078   1.157       .  T
C3072      N3077   1.157       .  T
C3073      N3075   1.157       .  T
C3074      N3076   1.157       .  T
C3079      C3080   1.415       .  A
C3079      C3084   1.422       .  A
C3080      C3081   1.417       .  A
C3080      C3085   1.450       .  S
C3081      C3082   1.424       .  A
C3081      C3088   1.452       .  S
C3082      C3083   1.420       .  A
C3083      C3084   1.421       .  A
C3083      C3086   1.451       .  S
C3084      C3087   1.453       .  S
C3085      N3092   1.157       .  T
C3086      N3091   1.157       .  T
C3087      N3089   1.158       .  T
C3088      N3090   1.157       .  T
C3093      C3094   1.411       .  A
C3093      C3098   1.414   1_565  A
C3094      C3095   1.416   1_565  A
C3094      C3099   1.451       .  S
C3095      C3096   1.414       .  A
C3095      C3102   1.450   1_545  S
C3096      C3097   1.413       .  A
C3097      C3098   1.416       .  A
C3097      C3100   1.451       .  S
C3098      C3101   1.451       .  S
C3099      N3106   1.157       .  T
C3100      N3105   1.157       .  T
C3101      N3103   1.157       .  T
C3102      N3104   1.157       .  T
C3107      C3108   1.405       .  A
C3107      C3112   1.410       .  A
C3108      C3109   1.394       .  A
C3108      C3113   1.450       .  S
C3109      C3110   1.412       .  A
C3109      C3116   1.454       .  S
C3110      C3111   1.410       .  A
C3111      C3112   1.407       .  A
C3111      C3114   1.448       .  S
C3112      C3115   1.449       .  S
C3113      N3120   1.155       .  T
C3114      N3119   1.157       .  T
C3115      N3117   1.157       .  T
C3116      N3118   1.157       .  T
C3121      C3122   1.422   1_545  A
C3121      C3126   1.417       .  A
C3122      C3123   1.416       .  A
C3122      C3127   1.454       .  S
C3123      C3124   1.418   1_565  A
C3123      C3130   1.450       .  S
C3124      C3125   1.421       .  A
C3125      C3126   1.421       .  A
C3125      C3128   1.451       .  S
C3126      C3129   1.449       .  S
C3127      N3134   1.158       .  T
C3128      N3133   1.157       .  T
C3129      N3131   1.157       .  T
C3130      N3132   1.157       .  T
C3135      C3136   1.416       .  A
C3135      C3140   1.415       .  A
C3136      C3137   1.420       .  A
C3136      C3141   1.450   1_545  S
C3137      C3138   1.413       .  A
C3137      C3144   1.448       .  S
C3138      C3139   1.411       .  A
C3139      C3140   1.417       .  A
C3139      C3142   1.447       .  S
C3140      C3143   1.450       .  S
C3141      N3148   1.157       .  T
C3142      N3147   1.156       .  T
C3143      N3145   1.157       .  T
C3144      N3146   1.157   1_545  T
C3149      C3150   1.412       .  A
C3149      C3154   1.418       .  A
C3150      C3151   1.397       .  A
C3150      C3155   1.448       .  S
C3151      C3152   1.406       .  A
C3151      C3158   1.450       .  S
C3152      C3153   1.409       .  A
C3153      C3154   1.398       .  A
C3153      C3156   1.452       .  S
C3154      C3157   1.452       .  S
C3155      N3162   1.156       .  T
C3156      N3161   1.158       .  T
C3157      N3159   1.157       .  T
C3158      N3160   1.157       .  T
C3163      C3164   1.447       .  A
C3163      C3168   1.423       .  A
C3164      C3165   1.433       .  A
C3164      C3169   1.449       .  S
C3165      C3166   1.409       .  A
C3165      C3172   1.452       .  S
C3166      C3167   1.430       .  A
C3167      C3168   1.445       .  A
C3167      C3170   1.448       .  S
C3168      C3171   1.447       .  S
C3169      N3176   1.157       .  T
C3170      N3175   1.157       .  T
C3171      N3173   1.157       .  T
C3172      N3174   1.157       .  T
C3177      C3178   1.418       .  A
C3177      C3182   1.427       .  A
C3178      C3179   1.421       .  A
C3178      C3183   1.450       .  S
C3179      C3180   1.429       .  A
C3179      C3186   1.454       .  S
C3180      C3181   1.419       .  A
C3181      C3182   1.426       .  A
C3181      C3184   1.450       .  S
C3182      C3185   1.452       .  S
C3183      N3190   1.157       .  T
C3184      N3189   1.157       .  T
C3185      N3187   1.158       .  T
C3186      N3188   1.158       .  T
C3191      C3192   1.411       .  A
C3191      C3196   1.410       .  A
C3192      C3193   1.412       .  A
C3192      C3197   1.450       .  S
C3193      C3194   1.412       .  A
C3193      C3200   1.450       .  S
C3194      C3195   1.413       .  A
C3195      C3196   1.413       .  A
C3195      C3198   1.449       .  S
C3196      C3199   1.450       .  S
C3197      N3204   1.157       .  T
C3198      N3203   1.157       .  T
C3199      N3201   1.157       .  T
C3200      N3202   1.157       .  T
C3205      C3206   1.425   1_655  A
C3205      C3210   1.427   1_655  A
C3206      C3207   1.443       .  A
C3206      C3211   1.447   1_455  S
C3207      C3208   1.423       .  A
C3207      C3214   1.447       .  S
C3208      C3209   1.417       .  A
C3209      C3210   1.413       .  A
C3209      C3212   1.447       .  S
C3210      C3213   1.456       .  S
C3211      N3218   1.157       .  T
C3212      N3217   1.154       .  T
C3213      N3215   1.157       .  T
C3214      N3216   1.157       .  T
C3219      C3220   1.424       .  A
C3219      C3224   1.430       .  A
C3220      C3221   1.408       .  A
C3220      C3225   1.449       .  S
C3221      C3222   1.403       .  A
C3221      C3228   1.449       .  S
C3222      C3223   1.394       .  A
C3223      C3224   1.401       .  A
C3223      C3226   1.453       .  S
C3224      C3227   1.447       .  S
C3225      N3232   1.157       .  T
C3226      N3231   1.157       .  T
C3227      N3229   1.156       .  T
C3228      N3230   1.157       .  T
C3233      C3234   1.421       .  A
C3233      C3238   1.423       .  A
C3234      C3235   1.417       .  A
C3234      C3239   1.451       .  S
C3235      C3236   1.422       .  A
C3235      C3242   1.454       .  S
C3236      C3237   1.418       .  A
C3237      C3238   1.422       .  A
C3237      C3240   1.449       .  S
C3238      C3241   1.452       .  S
C3239      N3246   1.157       .  T
C3240      N3245   1.157       .  T
C3241      N3243   1.157       .  T
C3242      N3244   1.157       .  T
C3247      C3248   1.414       .  A
C3247      C3252   1.414       .  A
C3248      C3249   1.424       .  A
C3248      C3253   1.449       .  S
C3249      C3250   1.419       .  A
C3249      C3256   1.450       .  S
C3250      C3251   1.418       .  A
C3251      C3252   1.418       .  A
C3251      C3254   1.451       .  S
C3252      C3255   1.450       .  S
C3253      N3260   1.157       .  T
C3254      N3259   1.157       .  T
C3255      N3257   1.157       .  T
C3256      N3258   1.157       .  T
C3261      C3262   1.418       .  A
C3261      C3266   1.415       .  A
C3262      C3263   1.427       .  A
C3262      C3267   1.449       .  S
C3263      C3264   1.417       .  A
C3263      C3270   1.449       .  S
C3264      C3265   1.421       .  A
C3265      C3266   1.427       .  A
C3265      C3268   1.449       .  S
C3266      C3269   1.450       .  S
C3267      N3274   1.157       .  T
C3268      N3273   1.157       .  T
C3269      N3271   1.157       .  T
C3270      N3272   1.157       .  T
C3275      C3276   1.408       .  A
C3275      C3280   1.407       .  A
C3276      C3277   1.403       .  A
C3276      C3281   1.452       .  S
C3277      C3278   1.420       .  A
C3277      C3284   1.450       .  S
C3278      C3279   1.415       .  A
C3279      C3280   1.406       .  A
C3279      C3282   1.450       .  S
C3280      C3283   1.446       .  S
C3281      N3288   1.157       .  T
C3282      N3287   1.157       .  T
C3283      N3285   1.156       .  T
C3284      N3286   1.157       .  T
C3289      C3290   1.422       .  A
C3289      C3294   1.422       .  A
C3290      C3291   1.422       .  A
C3290      C3295   1.452       .  S
C3291      C3292   1.418       .  A
C3291      C3298   1.451       .  S
C3292      C3293   1.425       .  A
C3293      C3294   1.443       .  A
C3293      C3296   1.447       .  S
C3294      C3297   1.446       .  S
C3295      N3302   1.157       .  T
C3296      N3301   1.157       .  T
C3297      N3299   1.157       .  T
C3298      N3300   1.157       .  T
C3303      C3304   1.418       .  A
C3303      C3308   1.425       .  A
C3304      C3305   1.418       .  A
C3304      C3309   1.452       .  S
C3305      C3306   1.426       .  A
C3305      C3312   1.453       .  S
C3306      C3307   1.417       .  A
C3307      C3308   1.423       .  A
C3307      C3310   1.448       .  S
C3308      C3311   1.452       .  S
C3309      N3316   1.157       .  T
C3310      N3315   1.157       .  T
C3311      N3313   1.157       .  T
C3312      N3314   1.157       .  T
C3317      C3318   1.413   1_545  A
C3317      C3322   1.416       .  A
C3318      C3319   1.418       .  A
C3318      C3323   1.450       .  S
C3319      C3320   1.417       .  A
C3319      C3326   1.451       .  S
C3320      C3321   1.410   1_565  A
C3321      C3322   1.415       .  A
C3321      C3324   1.451       .  S
C3322      C3325   1.448       .  S
C3323      N3330   1.157       .  T
C3324      N3329   1.157       .  T
C3325      N3327   1.156       .  T
C3326      N3328   1.157       .  T
C3331      C3332   1.420       .  A
C3331      C3336   1.423       .  A
C3332      C3333   1.431       .  A
C3332      C3337   1.447       .  S
C3333      C3334   1.419       .  A
C3333      C3340   1.450       .  S
C3334      C3335   1.415       .  A
C3335      C3336   1.428       .  A
C3335      C3338   1.450       .  S
C3336      C3339   1.449       .  S
C3337      N3344   1.157       .  T
C3338      N3343   1.157       .  T
C3339      N3341   1.157       .  T
C3340      N3342   1.157       .  T
C3345      C3346   1.410       .  A
C3345      C3350   1.412       .  A
C3346      C3347   1.400       .  A
C3346      C3351   1.450       .  S
C3347      C3348   1.413       .  A
C3347      C3354   1.450       .  S
C3348      C3349   1.412       .  A
C3349      C3350   1.400       .  A
C3349      C3352   1.449       .  S
C3350      C3353   1.449       .  S
C3351      N3358   1.157       .  T
C3352      N3357   1.156       .  T
C3353      N3355   1.156       .  T
C3354      N3356   1.157       .  T
C3359      C3360   1.404       .  A
C3359      C3364   1.403       .  A
C3360      C3361   1.404       .  A
C3360      C3365   1.446       .  S
C3361      C3362   1.419       .  A
C3361      C3368   1.450       .  S
C3362      C3363   1.414       .  A
C3363      C3364   1.403       .  A
C3363      C3366   1.446       .  S
C3364      C3367   1.443       .  S
C3365      N3372   1.157       .  T
C3366      N3371   1.157       .  T
C3367      N3369   1.156       .  T
C3368      N3370   1.157       .  T
C3373      C3374   1.424       .  A
C3373      C3378   1.416       .  A
C3374      C3375   1.416   1_545  A
C3374      C3379   1.453   1_545  S
C3375      C3376   1.417   1_465  A
C3375      C3382   1.452       .  S
C3376      C3377   1.423       .  A
C3377      C3378   1.418   1_655  A
C3377      C3380   1.452       .  S
C3378      C3381   1.450       .  S
C3379      N3386   1.157       .  T
C3380      N3385   1.157       .  T
C3381      N3383   1.157       .  T
C3382      N3384   1.158       .  T
C3387      C3388   1.409       .  A
C3387      C3392   1.412       .  A
C3388      C3389   1.410       .  A
C3388      C3393   1.451       .  S
C3389      C3390   1.414       .  A
C3389      C3396   1.450       .  S
C3390      C3391   1.409       .  A
C3391      C3392   1.409       .  A
C3391      C3394   1.450       .  S
C3392      C3395   1.450       .  S
C3393      N3400   1.157       .  T
C3394      N3399   1.157       .  T
C3395      N3397   1.157       .  T
C3396      N3398   1.157       .  T
C3401      C3402   1.413       .  A
C3401      C3406   1.408       .  A
C3402      C3403   1.405       .  A
C3402      C3407   1.452       .  S
C3403      C3404   1.414       .  A
C3403      C3410   1.453       .  S
C3404      C3405   1.411       .  A
C3405      C3406   1.398       .  A
C3405      C3408   1.449       .  S
C3406      C3409   1.454       .  S
C3407      N3414   1.157       .  T
C3408      N3413   1.157       .  T
C3409      N3411   1.157       .  T
C3410      N3412   1.157       .  T
C3415      C3416   1.419       .  A
C3415      C3420   1.416       .  A
C3416      C3417   1.423       .  A
C3416      C3421   1.450       .  S
C3417      C3418   1.413       .  A
C3417      C3424   1.450       .  S
C3418      C3419   1.419   1_455  A
C3419      C3420   1.425   1_655  A
C3419      C3422   1.450       .  S
C3420      C3423   1.449   1_455  S
C3421      N3428   1.157       .  T
C3422      N3427   1.157       .  T
C3423      N3425   1.157       .  T
C3424      N3426   1.157       .  T
C3429      C3430   1.419       .  A
C3429      C3434   1.414       .  A
C3430      C3431   1.408       .  A
C3430      C3435   1.448       .  S
C3431      C3432   1.412       .  A
C3431      C3438   1.454       .  S
C3432      C3433   1.407   1_655  A
C3433      C3434   1.395   1_455  A
C3433      C3436   1.447       .  S
C3434      C3437   1.453   1_655  S
C3435      N3442   1.156       .  T
C3436      N3441   1.155       .  T
C3437      N3439   1.157       .  T
C3438      N3440   1.157       .  T
C3443      C3444   1.442       .  A
C3443      C3448   1.415       .  A
C3444      C3445   1.438       .  A
C3444      C3449   1.450       .  S
C3445      C3446   1.412       .  A
C3445      C3452   1.449       .  S
C3446      C3447   1.436       .  A
C3447      C3448   1.436       .  A
C3447      C3450   1.449       .  S
C3448      C3451   1.448       .  S
C3449      N3456   1.157       .  T
C3450      N3455   1.157       .  T
C3451      N3453   1.157       .  T
C3452      N3454   1.157       .  T
