geometry optimzed in LAMMPS
_audit_creation_date              2020-12-01 
_audit_creation_method            'lammps2cif' 
_symmetry_space_group_name_H-M    'P1' 
_symmetry_Int_Tables_number       1 
_symmetry_cell_setting            triclinic 
loop_ 
_symmetry_equiv_pos_as_xyz 
  x,y,z 
_cell_length_a                    77.28351581 
_cell_length_b                    76.83544735496065 
_cell_length_c                    32.37579318393553 
_cell_angle_alpha                 90.01344972205293 
_cell_angle_beta                  89.98780161584082 
_cell_angle_gamma                 90.0649283302669 
loop_ 
_atom_site_label 
_atom_site_type_symbol 
_atom_site_fract_x 
_atom_site_fract_y 
_atom_site_fract_z 
_atom_site_charge 
O1          O  0.99141809  0.12309626  0.56453585    -0.83900
O2          O  0.02668950  0.12108845  0.56154483    -0.80900
C3          C  0.04139750  0.11589841  0.55049064     0.99600
O4          O  0.04349356  0.10812313  0.51636909    -0.80900
O5          O  0.02345492  0.07736194  0.50969666    -0.83600
C6          C  0.01022663  0.06786540  0.50501123     1.04100
O7          O  0.99666858  0.07402269  0.48918563    -0.76400
O8          O  0.98632523  0.09531475  0.55258919    -0.76500
C9          C  0.98687269  0.10810823  0.57689507     1.04100
O10         O  0.99217280  0.13983865  0.48343078    -0.83900
O11         O  0.02746394  0.13907672  0.48427649    -0.80900
C12         C  0.03291303  0.13411891  0.44940763     0.99600
O13         O  0.03105718  0.11862618  0.43741422    -0.81000
O14         O  0.01347998  0.08808372  0.42700956    -0.83600
C15         C  0.99972419  0.09368305  0.41037636     1.04100
O16         O  0.98794370  0.10064333  0.43162444    -0.76400
O17         O  0.97282464  0.11968194  0.49422552    -0.76500
C18         C  0.97679791  0.13463335  0.48145628     1.04000
Cr19       Cr  0.00923180  0.12918073  0.52148162     1.93700
Cr20       Cr  0.02646194  0.09867553  0.47468163     1.93200
Cr21       Cr  0.98748185  0.09822481  0.49223222     1.39100
O22         O  0.00788715  0.10873734  0.49633022    -1.21600
O23         O  0.99513193  0.90435133  0.47679622    -0.83900
O24         O  0.98482429  0.92557871  0.54072608    -0.80900
C25         C  0.97153865  0.93255063  0.52552762     0.99600
O26         O  0.95808915  0.92359099  0.51888325    -0.80900
O27         O  0.93709866  0.89370349  0.50834814    -0.83600
C28         C  0.93929294  0.88614980  0.47399013     1.04100
O29         O  0.95382583  0.88014493  0.46395261    -0.76400
O30         O  0.98904933  0.87691280  0.46296695    -0.76500
C31         C  0.99447159  0.89177131  0.45183793     1.04100
O32         O  0.00701944  0.87913683  0.53478534    -0.83900
O33         O  0.99179192  0.89824910  0.59758129    -0.80900
C34         C  0.98005555  0.90556647  0.61837084     0.99600
O35         O  0.96658076  0.91152870  0.60117749    -0.81000
O36         O  0.94812577  0.88179595  0.58762926    -0.83600
C37         C  0.94612152  0.86640045  0.57513186     1.04100
O38         O  0.95171030  0.86152959  0.54033684    -0.76400
O39         O  0.98695995  0.85947195  0.54294289    -0.76500
C40         C  0.00249436  0.86411024  0.54584841     1.04000
Cr41       Cr  0.99308209  0.90105583  0.53697789     1.93700
Cr42       Cr  0.95390260  0.90193000  0.55192675     1.93200
Cr43       Cr  0.97060020  0.87113826  0.50466979     1.39100
O44         O  0.97236625  0.89135132  0.53094173    -1.21600
O45         O  0.11677593  0.24939647  0.71603821    -0.83900
O46         O  0.12025954  0.21410077  0.71410475    -0.80900
C47         C  0.12609554  0.19931106  0.72297631     0.99600
O48         O  0.13381015  0.19663076  0.75693270    -0.80900
O49         O  0.16372552  0.21754694  0.76776626    -0.83600
C50         C  0.17271824  0.23097352  0.77491055     1.04100
O51         O  0.16587827  0.24426319  0.79079359    -0.76400
O52         O  0.14427264  0.25500895  0.72814693    -0.76500
C53         C  0.13152952  0.25446644  0.70387977     1.04100
O54         O  0.10024518  0.24604892  0.79674981    -0.83900
O55         O  0.10230473  0.21074037  0.79096609    -0.80900
C56         C  0.10730525  0.20511582  0.82559331     0.99600
O57         O  0.12267342  0.20704742  0.83756237    -0.81000
O58         O  0.15222321  0.22539077  0.85089050    -0.83600
C59         C  0.14631443  0.23877448  0.86891370     1.04100
O60         O  0.13901891  0.25079112  0.84892422    -0.76400
O61         O  0.11949574  0.26647565  0.78801370    -0.76500
C62         C  0.10480203  0.26165319  0.80038318     1.04000
Cr63       Cr  0.11148849  0.23026702  0.75645917     1.93700
Cr64       Cr  0.14240284  0.21305899  0.80131435     1.93200
Cr65       Cr  0.14142947  0.25258448  0.78839835     1.39100
O66         O  0.13177640  0.23180461  0.78180682    -1.21600
O67         O  0.33537127  0.24522200  0.80273949    -0.83900
O68         O  0.31498694  0.25591976  0.73793751    -0.80900
C69         C  0.30809893  0.26909015  0.75422993     0.99600
O70         O  0.31698168  0.28263947  0.76095543    -0.80900
O71         O  0.34672928  0.30379072  0.77216288    -0.83600
C72         C  0.35396943  0.30158135  0.80683160     1.04100
O73         O  0.35939648  0.28683936  0.81752021    -0.76400
O74         O  0.36251030  0.25137387  0.81816107    -0.76500
C75         C  0.34766784  0.24576046  0.82827940     1.04100
O76         O  0.36104191  0.23347867  0.74626771    -0.83900
O77         O  0.34289057  0.24895964  0.68255250    -0.80900
C78         C  0.33592204  0.26085421  0.66152302     0.99600
O79         O  0.32948564  0.27417010  0.67874206    -0.81000
O80         O  0.35901498  0.29258035  0.69362052    -0.83600
C81         C  0.37418286  0.29465336  0.70703182     1.04100
O82         O  0.37866346  0.28906327  0.74214162    -0.76400
O83         O  0.38064888  0.25370052  0.73943734    -0.76500
C84         C  0.37607385  0.23809948  0.73615147     1.04000
Cr85       Cr  0.33931051  0.24748990  0.74286933     1.93700
Cr86       Cr  0.33868542  0.28688279  0.72843859     1.93200
Cr87       Cr  0.36873241  0.27002593  0.77717903     1.39100
O88         O  0.34893713  0.26828758  0.74979179    -1.21600
O89         O  0.83583412  0.74697942  0.30347578    -0.83900
O90         O  0.81491527  0.75694605  0.23916922    -0.80900
C91         C  0.80813438  0.77006735  0.25586513     0.99600
O92         O  0.81705538  0.78362654  0.26209751    -0.80900
O93         O  0.84676242  0.80494664  0.27131742    -0.83600
C94         C  0.85471271  0.80291051  0.30514342     1.04100
O95         O  0.86063911  0.78830044  0.31536685    -0.76400
O96         O  0.86318473  0.75287508  0.31711376    -0.76500
C97         C  0.84824417  0.74798687  0.32860889     1.04100
O98         O  0.86098479  0.73442944  0.24605718    -0.83900
O99         O  0.84232129  0.74973599  0.18292877    -0.80900
C100        C  0.83524673  0.76160540  0.16200310     0.99600
O101        O  0.82890527  0.77498632  0.17919986    -0.81000
O102        O  0.85828089  0.79389924  0.19212142    -0.83600
C103        C  0.87365644  0.79586522  0.20422185     1.04100
O104        O  0.87874935  0.78992390  0.23851611    -0.76400
O105        O  0.88045434  0.75449942  0.23634723    -0.76500
C106        C  0.87573841  0.73891211  0.23351585     1.04000
Cr107      Cr  0.83927859  0.74859814  0.24336119     1.93700
Cr108      Cr  0.83841192  0.78793978  0.22821851     1.93200
Cr109      Cr  0.86918446  0.77114615  0.27481029     1.39100
O110        O  0.84901338  0.76942534  0.24902810    -1.21600
O111        O  0.61877789  0.74920434  0.21624444    -0.83900
O112        O  0.62014308  0.71369579  0.21699351    -0.80900
C113        C  0.62598532  0.69893587  0.22625506     0.99600
O114        O  0.63397160  0.69644260  0.25988170    -0.80900
O115        O  0.66434360  0.71665135  0.27074680    -0.83600
C116        C  0.67367460  0.72982973  0.27803375     1.04100
O117        O  0.66711978  0.74324822  0.29384702    -0.76400
O118        O  0.64636380  0.75418450  0.22948713    -0.76500
C119        C  0.63376302  0.75391126  0.20470727     1.04100
O120        O  0.60168292  0.74789077  0.29698357    -0.83900
O121        O  0.60216564  0.71241795  0.29406664    -0.80900
C122        C  0.60716885  0.70620157  0.32812209     0.99600
O123        O  0.62267598  0.70735465  0.33968919    -0.81000
O124        O  0.65248860  0.72520157  0.35342890    -0.83600
C125        C  0.64669309  0.73876024  0.37092029     1.04100
O126        O  0.64002373  0.75096770  0.35026536    -0.76400
O127        O  0.62186156  0.76723900  0.28736115    -0.76500
C128        C  0.60689395  0.76333416  0.29943201     1.04000
Cr129      Cr  0.61232334  0.73095766  0.25813085     1.93700
Cr130      Cr  0.64269715  0.71287831  0.30385713     1.93200
Cr131      Cr  0.64303143  0.75231916  0.28973358     1.39100
O132        O  0.63265010  0.73184504  0.28358690    -1.21600
O133        O  0.49070199  0.62376950  0.06461052    -0.83900
O134        O  0.52606820  0.62224532  0.06403439    -0.80900
C135        C  0.54076656  0.61644865  0.05453945     0.99600
O136        O  0.54320465  0.60837810  0.02093266    -0.80900
O137        O  0.52340085  0.57761332  0.01103033    -0.83600
C138        C  0.51029978  0.56809999  0.00467441     1.04100
O139        O  0.49675747  0.57453253  0.98948287    -0.76400
O140        O  0.48618524  0.59584908  0.05314721    -0.76500
C141        C  0.48651858  0.60873109  0.07725711     1.04100
O142        O  0.49207082  0.64029924  0.98328606    -0.83900
O143        O  0.52741375  0.64002860  0.98686777    -0.80900
C144        C  0.53360165  0.63500412  0.95282789     0.99600
O145        O  0.53217496  0.61943744  0.94103651    -0.81000
O146        O  0.51444370  0.58915045  0.92850420    -0.83600
C147        C  0.50071311  0.59460209  0.91149526     1.04100
O148        O  0.48862641  0.60127655  0.93230845    -0.76400
O149        O  0.47281419  0.62012188  0.99431023    -0.76500
C150        C  0.47672695  0.63498876  0.98091557     1.04000
Cr151      Cr  0.50888854  0.62994820  0.02270453     1.93700
Cr152      Cr  0.52684439  0.59931884  0.97741010     1.93200
Cr153      Cr  0.48765825  0.59876855  0.99279758     1.39100
O154        O  0.50800450  0.60936517  0.99787991    -1.21600
O155        O  0.49548105  0.40497329  0.97421514    -0.83900
O156        O  0.48479408  0.42541542  0.03895007    -0.80900
C157        C  0.47168721  0.43226886  0.02259044     0.99600
O158        O  0.45824180  0.42325443  0.01601772    -0.80900
O159        O  0.43738216  0.39318565  0.00496073    -0.83600
C160        C  0.43954219  0.38584994  0.97035979     1.04100
O161        O  0.45418785  0.38034317  0.95961288    -0.76400
O162        O  0.48952061  0.37767482  0.95849395    -0.76500
C163        C  0.49483160  0.39270980  0.94840374     1.04100
O164        O  0.50747090  0.37929315  0.03080253    -0.83900
O165        O  0.49188755  0.39748638  0.09446846    -0.80900
C166        C  0.48003110  0.40449716  0.11543612     0.99600
O167        O  0.46669143  0.41073196  0.09821216    -0.81000
O168        O  0.44857946  0.38080041  0.08336684    -0.83600
C169        C  0.44676025  0.36547216  0.07008275     1.04100
O170        O  0.45240806  0.36099240  0.03502971    -0.76400
O171        O  0.48761733  0.35933061  0.03748122    -0.76500
C172        C  0.50304954  0.36417320  0.04129778     1.04000
Cr173      Cr  0.49331590  0.40100541  0.03409274     1.93700
Cr174      Cr  0.45414674  0.40134739  0.04856604     1.93200
Cr175      Cr  0.47115182  0.37118341  0.99979987     1.39100
O176        O  0.47271064  0.39113883  0.02720382    -1.21600
O177        O  0.11694880  0.75163567  0.81619600    -0.83900
O178        O  0.11950580  0.78707465  0.81475514    -0.80900
C179        C  0.12527362  0.80176868  0.80463379     0.99600
O180        O  0.13305192  0.80397133  0.77058557    -0.80900
O181        O  0.16317948  0.78318122  0.76125741    -0.83600
C182        C  0.17226295  0.76974816  0.75489275     1.04100
O183        O  0.16553320  0.75632850  0.73936411    -0.76400
O184        O  0.14439823  0.74594319  0.80326853    -0.76500
C185        C  0.13177783  0.74659074  0.82790918     1.04100
O186        O  0.10000145  0.75324202  0.73556131    -0.83900
O187        O  0.10142011  0.78859911  0.73759401    -0.80900
C188        C  0.10637403  0.79404065  0.70271582     0.99600
O189        O  0.12182732  0.79238031  0.69102622    -0.81000
O190        O  0.15157856  0.77422171  0.67881935    -0.83600
C191        C  0.14552562  0.76071382  0.66160900     1.04100
O192        O  0.13846108  0.74879421  0.68245926    -0.76400
O193        O  0.11963511  0.73334407  0.74522879    -0.76500
C194        C  0.10478913  0.73768600  0.73313807     1.04000
Cr195      Cr  0.11108064  0.76993704  0.77402977     1.93700
Cr196      Cr  0.14172198  0.78703823  0.72753315     1.93200
Cr197      Cr  0.14124475  0.74768461  0.74302309     1.39100
O198        O  0.13133891  0.76839986  0.74852719    -1.21600
O199        O  0.33518637  0.75502350  0.72344210    -0.83900
O200        O  0.31375038  0.74423671  0.78662117    -0.80900
C201        C  0.30712803  0.73083101  0.77079157     0.99600
O202        O  0.31630670  0.71749605  0.76430007    -0.80900
O203        O  0.34638983  0.69702215  0.75385716    -0.83600
C204        C  0.35431490  0.69950693  0.72011803     1.04100
O205        O  0.36030707  0.71423747  0.71096220    -0.76400
O206        O  0.36276447  0.74974702  0.71130160    -0.76500
C207        C  0.34797155  0.75472156  0.69924198     1.04100
O208        O  0.35960146  0.76745453  0.78266545    -0.83900
O209        O  0.34049253  0.75159040  0.84439045    -0.80900
C210        C  0.33354259  0.73949748  0.86491379     0.99600
O211        O  0.32789268  0.72586081  0.84740120    -0.81000
O212        O  0.35766339  0.70759657  0.83404479    -0.83600
C213        C  0.37309272  0.70591508  0.82211558     1.04100
O214        O  0.37814891  0.71209932  0.78805062    -0.76400
O215        O  0.37932981  0.74761642  0.79215065    -0.76500
C216        C  0.37445533  0.76315753  0.79484850     1.04000
Cr217      Cr  0.33804614  0.75296615  0.78377274     1.93700
Cr218      Cr  0.33775920  0.71346976  0.79790557     1.93200
Cr219      Cr  0.36849672  0.73110726  0.75267602     1.39100
O220        O  0.34812525  0.73232918  0.77788494    -1.21600
O221        O  0.99160847  0.87873840  0.96465174    -0.83900
O222        O  0.02690372  0.88029335  0.96538112    -0.80900
C223        C  0.04152768  0.88637164  0.97451434     0.99600
O224        O  0.04392332  0.89465279  0.00784839    -0.80900
O225        O  0.02349014  0.92493023  0.01830489    -0.83600
C226        C  0.01025098  0.93415154  0.02513413     1.04100
O227        O  0.99713049  0.92752618  0.04183360    -0.76400
O228        O  0.98664682  0.90650612  0.97740765    -0.76500
C229        C  0.98704248  0.89378984  0.95275814     1.04100
O230        O  0.99300815  0.86181600  0.04583411    -0.83900
O231        O  0.02833965  0.86245647  0.04260733    -0.80900
C232        C  0.03486722  0.86765236  0.07618756     0.99600
O233        O  0.03351951  0.88325207  0.08778754    -0.81000
O234        O  0.01520483  0.91303982  0.10147001    -0.83600
C235        C  0.00168259  0.90721453  0.11890776     1.04100
O236        O  0.98959698  0.90037111  0.09825193    -0.76400
O237        O  0.97366360  0.88186545  0.03525708    -0.76500
C238        C  0.97763305  0.86697725  0.04813780     1.04000
Cr239      Cr  0.00978187  0.87245114  0.00667145     1.93700
Cr240      Cr  0.02756693  0.90330181  0.05185519     1.93200
Cr241      Cr  0.98834880  0.90324858  0.03769802     1.39100
O242        O  0.00878599  0.89294309  0.03185398    -1.21600
O243        O  0.99456772  0.09733858  0.05351237    -0.83900
O244        O  0.98457487  0.07595588  0.98965963    -0.80900
C245        C  0.97101963  0.06927521  0.00443254     0.99600
O246        O  0.95764957  0.07845466  0.00988577    -0.80900
O247        O  0.93697037  0.10860471  0.01805172    -0.83600
C248        C  0.93888494  0.11608750  0.05259933     1.04100
O249        O  0.95342344  0.12177096  0.06367829    -0.76400
O250        O  0.98866383  0.12488453  0.06644977    -0.76500
C251        C  0.99380385  0.11002343  0.07812570     1.04100
O252        O  0.00726768  0.12226633  0.99584341    -0.83900
O253        O  0.99256747  0.10310959  0.93257031    -0.80900
C254        C  0.98095360  0.09588270  0.91121818     0.99600
O255        O  0.96733190  0.08993690  0.92782660    -0.81000
O256        O  0.94926599  0.11996011  0.93939445    -0.83600
C257        C  0.94710677  0.13533912  0.95174539     1.04100
O258        O  0.95219568  0.14021702  0.98697309    -0.76400
O259        O  0.98745589  0.14206535  0.98636284    -0.76500
C260        C  0.00296429  0.13730695  0.98444419     1.04000
Cr261      Cr  0.99317208  0.10043401  0.99325166     1.93700
Cr262      Cr  0.95420032  0.09993490  0.97591688     1.93200
Cr263      Cr  0.97065582  0.13062537  0.02381558     1.39100
O264        O  0.97252937  0.11035719  0.99791883    -1.21600
O265        O  0.49404657  0.59649625  0.55412041    -0.83900
O266        O  0.48468286  0.57569302  0.48845565    -0.80900
C267        C  0.47118463  0.56876641  0.50269079     0.99600
O268        O  0.45774033  0.57781188  0.50851367    -0.80900
O269        O  0.43698484  0.60790601  0.51861875    -0.83600
C270        C  0.43879456  0.61556476  0.55300845     1.04100
O271        O  0.45326557  0.62142364  0.56417977    -0.76400
O272        O  0.48855332  0.62411218  0.56729509    -0.76500
C273        C  0.49338023  0.60913185  0.57889944     1.04100
O274        O  0.50726381  0.62180614  0.49816041    -0.83900
O275        O  0.49285970  0.60334747  0.43361952    -0.80900
C276        C  0.48129298  0.59647538  0.41150835     0.99600
O277        O  0.46749752  0.59045287  0.42721532    -0.81000
O278        O  0.44894869  0.62008976  0.44042160    -0.83600
C279        C  0.44688578  0.63542323  0.45324916     1.04100
O280        O  0.45230667  0.64015588  0.48825684    -0.76400
O281        O  0.48759909  0.64155722  0.48721726    -0.76500
C282        C  0.50308624  0.63670206  0.48560679     1.04000
Cr283      Cr  0.49311426  0.60009603  0.49398988     1.93700
Cr284      Cr  0.45418394  0.59972836  0.47586651     1.93200
Cr285      Cr  0.47066921  0.63021831  0.52466883     1.39100
O286        O  0.47245319  0.61002309  0.49843968    -1.21600
O287        O  0.49128790  0.37714961  0.46280878    -0.83900
O288        O  0.52657915  0.37964037  0.46504201    -0.80900
C289        C  0.54120047  0.38540340  0.47529780     0.99600
O290        O  0.54330771  0.39343585  0.50909953    -0.80900
O291        O  0.52292168  0.42392119  0.51624535    -0.83600
C292        C  0.50963426  0.43326701  0.52139019     1.04100
O293        O  0.49607643  0.42682880  0.53666232    -0.76400
O294        O  0.48591559  0.40493660  0.47387359    -0.76500
C295        C  0.48652413  0.39198749  0.45000797     1.04100
O296        O  0.49244575  0.36093522  0.54449658    -0.83900
O297        O  0.52773289  0.36213894  0.54281508    -0.80900
C298        C  0.53330082  0.36737911  0.57732203     0.99600
O299        O  0.53138730  0.38292608  0.58877708    -0.81000
O300        O  0.51341033  0.41317391  0.59901076    -0.83600
C301        C  0.49971408  0.40758829  0.61599302     1.04100
O302        O  0.48792568  0.40038779  0.59513328    -0.76400
O303        O  0.47286274  0.38075697  0.53325333    -0.76500
C304        C  0.47701990  0.36595749  0.54658589     1.04000
Cr305      Cr  0.50929545  0.37159553  0.50573291     1.93700
Cr306      Cr  0.52632934  0.40266190  0.55122035     1.93200
Cr307      Cr  0.48726870  0.40243042  0.53436435     1.39100
O308        O  0.50780412  0.39220482  0.53019838    -1.21600
O309        O  0.83581668  0.25524957  0.22505042    -0.83900
O310        O  0.81481592  0.24481720  0.28922728    -0.80900
C311        C  0.80800510  0.23137297  0.27397820     0.99600
O312        O  0.81706489  0.21794579  0.26743519    -0.80900
O313        O  0.84704530  0.19711330  0.25699853    -0.83600
C314        C  0.85465910  0.19931744  0.22275715     1.04100
O315        O  0.86037111  0.21402268  0.21246502    -0.76400
O316        O  0.86320339  0.24952252  0.21154656    -0.76500
C317        C  0.84837684  0.25470265  0.20024474     1.04100
O318        O  0.86084870  0.26760215  0.28267943    -0.83900
O319        O  0.84210029  0.25223409  0.34565074    -0.80900
C320        C  0.83499932  0.24036952  0.36658003     0.99600
O321        O  0.82910367  0.22674429  0.34958056    -0.81000
O322        O  0.85878425  0.20841494  0.33608736    -0.83600
C323        C  0.87408073  0.20646674  0.32346924     1.04100
O324        O  0.87887766  0.21217169  0.28872433    -0.76400
O325        O  0.88051711  0.24762470  0.29138149    -0.76500
C326        C  0.87578862  0.26320286  0.29400494     1.04000
Cr327      Cr  0.83916802  0.25337186  0.28517719     1.93700
Cr328      Cr  0.83868294  0.21398930  0.30043908     1.93200
Cr329      Cr  0.86913079  0.23104539  0.25311689     1.39100
O330        O  0.84901382  0.23263095  0.27931418    -1.21600
O331        O  0.61717523  0.25274181  0.31569801    -0.83900
O332        O  0.62036683  0.28807043  0.31310814    -0.80900
C333        C  0.62632373  0.30261930  0.30243766     0.99600
O334        O  0.63406150  0.30451688  0.26821430    -0.80900
O335        O  0.66361087  0.28291132  0.25785233    -0.83600
C336        C  0.67235024  0.26925168  0.25147913     1.04100
O337        O  0.66521143  0.25598030  0.23629263    -0.76400
O338        O  0.64445361  0.24664261  0.30182151    -0.76500
C339        C  0.63206185  0.24769793  0.32702669     1.04100
O340        O  0.59960752  0.25423224  0.23556024    -0.83900
O341        O  0.60172645  0.28966755  0.23694775    -0.80900
C342        C  0.60660023  0.29513420  0.20204352     0.99600
O343        O  0.62189358  0.29302882  0.18958153    -0.81000
O344        O  0.65092563  0.27386650  0.17605670    -0.83600
C345        C  0.64435647  0.26039772  0.15967728     1.04100
O346        O  0.63735804  0.24871253  0.18137301    -0.76400
O347        O  0.61890195  0.23406843  0.24572159    -0.76500
C348        C  0.60414602  0.23857813  0.23338631     1.04000
Cr349      Cr  0.61128487  0.27092782  0.27325794     1.93700
Cr350      Cr  0.64195265  0.28719508  0.22508104     1.93200
Cr351      Cr  0.64075660  0.24794726  0.24173026     1.39100
O352        O  0.63131022  0.26889202  0.24695331    -1.21600
O353        O  0.48813202  0.87687606  0.06736786    -0.83900
O354        O  0.45310742  0.88037364  0.06245554    -0.80900
C355        C  0.43873230  0.88607432  0.05045539     0.99600
O356        O  0.43716594  0.89341900  0.01562653    -0.80900
O357        O  0.45817064  0.92344645  0.00754304    -0.83600
C358        C  0.47173566  0.93245647  0.00291653     1.04100
O359        O  0.48541169  0.92555588  0.98963482    -0.76400
O360        O  0.49394349  0.90445464  0.05499369    -0.76500
C361        C  0.49276586  0.89182868  0.07963613     1.04100
O362        O  0.48750717  0.85957940  0.98720355    -0.83900
O363        O  0.45224094  0.86151540  0.98634779    -0.80900
C364        C  0.44749693  0.86619089  0.95071557     0.99600
O365        O  0.45006394  0.88145863  0.93790450    -0.81000
O366        O  0.46878223  0.91128276  0.92675877    -0.83600
C367        C  0.48279854  0.90551421  0.91174906     1.04100
O368        O  0.49401059  0.89827331  0.93419985    -0.76400
O369        O  0.50740397  0.87912057  0.99889526    -0.76500
C370        C  0.50306624  0.86425295  0.98623812     1.04000
Cr371      Cr  0.47051067  0.87115092  0.02378360     1.93700
Cr372      Cr  0.45489603  0.90171748  0.97415100     1.93200
Cr373      Cr  0.49362681  0.90108413  0.99472723     1.39100
O374        O  0.47284676  0.89129951  0.99766699    -1.21600
O375        O  0.48636510  0.09451163  0.97594775    -0.83900
O376        O  0.49689153  0.07370200  0.04023027    -0.80900
C377        C  0.51045601  0.06754220  0.02447115     0.99600
O378        O  0.52355676  0.07714030  0.01909886    -0.80900
O379        O  0.54337635  0.10789191  0.01116326    -0.83600
C380        C  0.54121250  0.11562432  0.97705126     1.04100
O381        O  0.52653131  0.12099453  0.96629256    -0.76400
O382        O  0.49124513  0.12228302  0.96302889    -0.76500
C383        C  0.48667869  0.10720309  0.95131482     1.04100
O384        O  0.47249033  0.11897813  0.03318173    -0.83900
O385        O  0.48798764  0.10063903  0.09669117    -0.80900
C386        C  0.49985824  0.09390004  0.11806977     0.99600
O387        O  0.51366338  0.08835702  0.10154224    -0.81000
O388        O  0.53115587  0.11884756  0.08996346    -0.83600
C389        C  0.53264849  0.13437207  0.07793144     1.04100
O390        O  0.52684631  0.13924960  0.04332069    -0.76400
O391        O  0.49146658  0.13950488  0.04357338    -0.76500
C392        C  0.47613844  0.13411420  0.04519535     1.04000
Cr393      Cr  0.48750359  0.09779793  0.03617081     1.93700
Cr394      Cr  0.52649474  0.09868791  0.05336004     1.93200
Cr395      Cr  0.50885363  0.12890165  0.00609928     1.39100
O396        O  0.50779365  0.10852567  0.03166804    -1.21600
O397        O  0.14481286  0.75468679  0.30333312    -0.83900
O398        O  0.16590150  0.74472601  0.23889511    -0.80900
C399        C  0.17274911  0.73152884  0.25503541     0.99600
O400        O  0.16377909  0.71802741  0.26164163    -0.80900
O401        O  0.13393888  0.69677984  0.27124740    -0.83600
C402        C  0.12575211  0.69886429  0.30478404     1.04100
O403        O  0.11963650  0.71345431  0.31454161    -0.76400
O404        O  0.11735519  0.74889600  0.31634080    -0.76500
C405        C  0.13221469  0.75393425  0.32803215     1.04100
O406        O  0.11996841  0.76738093  0.24597843    -0.83900
O407        O  0.13857987  0.75198143  0.18268469    -0.80900
C408        C  0.14562178  0.74009170  0.16171715     0.99600
O409        O  0.15186425  0.72664765  0.17884943    -0.81000
O410        O  0.12256200  0.70777940  0.19168573    -0.83600
C411        C  0.10707380  0.70611119  0.20312687     1.04100
O412        O  0.10184113  0.71206586  0.23727468    -0.76400
O413        O  0.10037045  0.74753070  0.23541779    -0.76500
C414        C  0.10518104  0.76311516  0.23336477     1.04000
Cr415      Cr  0.14154862  0.75308280  0.24315585     1.93700
Cr416      Cr  0.14234984  0.71373450  0.22794550     1.93200
Cr417      Cr  0.11141120  0.73070398  0.27387620     1.39100
O418        O  0.13172815  0.73229331  0.24861643    -1.21600
O419        O  0.36298831  0.75154082  0.21064960    -0.83900
O420        O  0.36086928  0.78698306  0.21061404    -0.80900
C421        C  0.35516489  0.80176410  0.22012985     0.99600
O422        O  0.34747466  0.80431266  0.25414838    -0.80900
O423        O  0.31718531  0.78398177  0.26576802    -0.83600
C424        C  0.30797758  0.77067775  0.27281486     1.04100
O425        O  0.31466954  0.75725925  0.28830976    -0.76400
O426        O  0.33545226  0.74650718  0.22391506    -0.76500
C427        C  0.34800491  0.74688790  0.19902048     1.04100
O428        O  0.38013624  0.75367717  0.29122724    -0.83900
O429        O  0.37930749  0.78907136  0.28704679    -0.80900
C430        C  0.37456686  0.79509538  0.32153968     0.99600
O431        O  0.35917435  0.79356566  0.33387847    -0.81000
O432        O  0.32936430  0.77554124  0.34810839    -0.83600
C433        C  0.33520535  0.76196571  0.36539512     1.04100
O434        O  0.34188198  0.74980936  0.34460909    -0.76400
O435        O  0.36030909  0.73390462  0.28196283    -0.76500
C436        C  0.37512285  0.73820471  0.29443581     1.04000
Cr437      Cr  0.36922388  0.77013201  0.25194533     1.93700
Cr438      Cr  0.33895985  0.78790914  0.29842121     1.93200
Cr439      Cr  0.33886206  0.74844020  0.28414899     1.39100
O440        O  0.34902118  0.76902374  0.27788929    -1.21600
O441        O  0.98533967  0.59657982  0.47479243    -0.83900
O442        O  0.99486280  0.57516838  0.53902647    -0.80900
C443        C  0.00816301  0.56834900  0.52357748     0.99600
O444        O  0.02162132  0.57741159  0.51765121    -0.80900
O445        O  0.04258950  0.60758543  0.50890514    -0.83600
C446        C  0.04064363  0.61576829  0.47525548     1.04100
O447        O  0.02615579  0.62185821  0.46508437    -0.76400
O448        O  0.99089646  0.62429028  0.46287117    -0.76500
C449        C  0.98628376  0.60933757  0.45041331     1.04100
O450        O  0.97238181  0.62139084  0.53263726    -0.83900
O451        O  0.98723916  0.60230808  0.59564312    -0.80900
C452        C  0.99897012  0.59519613  0.61679584     0.99600
O453        O  0.01251808  0.58914453  0.60005542    -0.81000
O454        O  0.03112515  0.61886290  0.58836292    -0.83600
C455        C  0.03289485  0.63443378  0.57691681     1.04100
O456        O  0.02733234  0.63961955  0.54241416    -0.76400
O457        O  0.99215688  0.64095956  0.54429433    -0.76500
C458        C  0.97667747  0.63609423  0.54628816     1.04000
Cr459      Cr  0.98652901  0.59963356  0.53510909     1.93700
Cr460      Cr  0.02557648  0.59894453  0.55164740     1.93200
Cr461      Cr  0.00889470  0.63006528  0.50561257     1.39100
O462        O  0.00721311  0.60956463  0.53050897    -1.21600
O463        O  0.98881825  0.37820844  0.56690468    -0.83900
O464        O  0.95336887  0.38000936  0.56765816    -0.80900
C465        C  0.93855585  0.38538030  0.55779960     0.99600
O466        O  0.93600441  0.39286526  0.52355136    -0.80900
O467        O  0.95596749  0.42343113  0.51248795    -0.83600
C468        C  0.96905967  0.43282738  0.50514880     1.04100
O469        O  0.98230645  0.42633429  0.48851202    -0.76400
O470        O  0.99412672  0.40572219  0.55190935    -0.76500
C471        C  0.99393694  0.39328067  0.57728418     1.04100
O472        O  0.98663830  0.36035962  0.48723609    -0.83900
O473        O  0.95147891  0.36122696  0.49143135    -0.80900
C474        C  0.94561418  0.36588279  0.45673290     0.99600
O475        O  0.94696155  0.38133372  0.44418678    -0.81000
O476        O  0.96409542  0.41165054  0.42962464    -0.83600
C477        C  0.97732475  0.40565805  0.41146704     1.04100
O478        O  0.98953403  0.39885178  0.43160723    -0.76400
O479        O  0.00616438  0.38065462  0.49357457    -0.76500
C480        C  0.00193223  0.36551948  0.48267471     1.04000
Cr481      Cr  0.97025029  0.37157045  0.52625697     1.93700
Cr482      Cr  0.95220534  0.40167353  0.47949888     1.93200
Cr483      Cr  0.99147351  0.40208801  0.49199621     1.39100
O484        O  0.97115163  0.39175503  0.49965603    -1.21600
O485        O  0.86275000  0.25148671  0.71047893    -0.83900
O486        O  0.85957834  0.28690423  0.71164110    -0.80900
C487        C  0.85347510  0.30144020  0.72190752     0.99600
O488        O  0.84595299  0.30349550  0.75629368    -0.80900
O489        O  0.81658432  0.28188961  0.76726771    -0.83600
C490        C  0.80788332  0.26820654  0.77383670     1.04100
O491        O  0.81494580  0.25517882  0.79024390    -0.76400
O492        O  0.83555416  0.24523858  0.72513916    -0.76500
C493        C  0.84788994  0.24611591  0.69975255     1.04100
O494        O  0.88053618  0.25360483  0.78999235    -0.83900
O495        O  0.87841444  0.28897307  0.78755928    -0.80900
C496        C  0.87365909  0.29459551  0.82242151     0.99600
O497        O  0.85836718  0.29259295  0.83512368    -0.81000
O498        O  0.82922633  0.27353093  0.84955272    -0.83600
C499        C  0.83576500  0.26020377  0.86650862     1.04100
O500        O  0.84285420  0.24841600  0.84534934    -0.76400
O501        O  0.86118817  0.23329349  0.78143618    -0.76500
C502        C  0.87603806  0.23795632  0.79279131     1.04000
Cr503      Cr  0.86874619  0.27000352  0.75201285     1.93700
Cr504      Cr  0.83820404  0.28648282  0.80001202     1.93200
Cr505      Cr  0.83936983  0.24713714  0.78506732     1.39100
O506        O  0.84880815  0.26806379  0.77875770    -1.21600
O507        O  0.64564972  0.25439798  0.80125601    -0.83900
O508        O  0.66679157  0.24303897  0.73805642    -0.80900
C509        C  0.67296994  0.22926708  0.75297705     0.99600
O510        O  0.66330687  0.21624418  0.75936235    -0.80900
O511        O  0.63236637  0.19707284  0.77062068    -0.83600
C512        C  0.62467079  0.19997867  0.80449462     1.04100
O513        O  0.61922162  0.21492961  0.81345406    -0.76400
O514        O  0.61780808  0.25046382  0.81241281    -0.76500
C515        C  0.63274888  0.25463893  0.82508510     1.04100
O516        O  0.62177834  0.26774316  0.74157897    -0.83900
O517        O  0.64060153  0.25144266  0.68027136    -0.80900
C518        C  0.64714178  0.23915972  0.65968776     0.99600
O519        O  0.65185163  0.22509143  0.67676702    -0.81000
O520        O  0.62131620  0.20792587  0.69025985    -0.83600
C521        C  0.60588047  0.20669371  0.70252476     1.04100
O522        O  0.60120184  0.21300486  0.73672389    -0.76400
O523        O  0.60143345  0.24852981  0.73148576    -0.76500
C524        C  0.60686000  0.26389946  0.72886771     1.04000
Cr525      Cr  0.64285001  0.25258032  0.74083128     1.93700
Cr526      Cr  0.64155671  0.21307494  0.72622758     1.93200
Cr527      Cr  0.61156112  0.23184976  0.77145462     1.39100
O528        O  0.63198382  0.23231204  0.74633897    -1.21600
O529        O  0.98854815  0.62423240  0.96122287    -0.83900
O530        O  0.95316531  0.62183333  0.96556219    -0.80900
C531        C  0.93864107  0.61630120  0.97730435     0.99600
O532        O  0.93702202  0.60838425  0.01140324    -0.80900
O533        O  0.95769438  0.57787947  0.01887405    -0.83600
C534        C  0.97111041  0.56865395  0.02377030     1.04100
O535        O  0.98471906  0.57532732  0.03819478    -0.76400
O536        O  0.99439209  0.59662886  0.97383677    -0.76500
C537        C  0.99366750  0.60937306  0.94940499     1.04100
O538        O  0.98819709  0.64130795  0.04173545    -0.83900
O539        O  0.95296748  0.64006622  0.04236238    -0.80900
C540        C  0.94779896  0.63520248  0.07750599     0.99600
O541        O  0.94972392  0.61972596  0.08960746    -0.81000
O542        O  0.96785778  0.58954988  0.10049458    -0.83600
C543        C  0.98161755  0.59545471  0.11652206     1.04100
O544        O  0.99317670  0.60249882  0.09469557    -0.76400
O545        O  0.00771634  0.62138237  0.03092861    -0.76500
C546        C  0.00364729  0.63634420  0.04327552     1.04000
Cr547      Cr  0.97096025  0.63021494  0.00471115     1.93700
Cr548      Cr  0.95447458  0.59955369  0.05286883     1.93200
Cr549      Cr  0.99337729  0.59974614  0.03410175     1.39100
O550        O  0.97275541  0.60984840  0.03022252    -1.21600
O551        O  0.98504292  0.40536339  0.05215336    -0.83900
O552        O  0.99608217  0.42594920  0.98770780    -0.80900
C553        C  0.00936783  0.43265085  0.00365259     0.99600
O554        O  0.02262110  0.42341386  0.01049655    -0.80900
O555        O  0.04294481  0.39295175  0.02145770    -0.83600
C556        C  0.04067165  0.38534972  0.05571099     1.04100
O557        O  0.02595848  0.37982920  0.06606557    -0.76400
O558        O  0.99052887  0.37789048  0.06702326    -0.76500
C559        C  0.98544955  0.39293870  0.07758209     1.04100
O560        O  0.97256125  0.38016524  0.99472796    -0.83900
O561        O  0.98859321  0.39838565  0.93159648    -0.80900
C562        C  0.00061122  0.40527677  0.91086235     0.99600
O563        O  0.01406149  0.41119490  0.92827134    -0.81000
O564        O  0.03167117  0.38101834  0.94257717    -0.83600
C565        C  0.03309798  0.36558140  0.95530800     1.04100
O566        O  0.02726072  0.36097515  0.99005764    -0.76400
O567        O  0.99207205  0.35997420  0.98736099    -0.76500
C568        C  0.97671952  0.36504612  0.98368393     1.04000
Cr569      Cr  0.98716796  0.40165165  0.99208763     1.93700
Cr570      Cr  0.02637718  0.40148602  0.97780145     1.93200
Cr571      Cr  0.00876034  0.37130192  0.02552296     1.39100
O572        O  0.00760946  0.39145454  0.99881071    -1.21600
O573        O  0.86259857  0.74975193  0.81658225    -0.83900
O574        O  0.85943939  0.71428308  0.81647907    -0.80900
C575        C  0.85369904  0.69952736  0.80665462     0.99600
O576        O  0.84620116  0.69712790  0.77229520    -0.80900
O577        O  0.81619282  0.71784821  0.76176246    -0.83600
C578        C  0.80715672  0.73131193  0.75556037     1.04100
O579        O  0.81391060  0.74476656  0.74026697    -0.76400
O580        O  0.83514770  0.75533693  0.80384912    -0.76500
C581        C  0.84783176  0.75492811  0.82829912     1.04100
O582        O  0.87953147  0.74742080  0.73628667    -0.83900
O583        O  0.87783078  0.71197333  0.74010520    -0.80900
C584        C  0.87307794  0.70638972  0.70523172     0.99600
O585        O  0.85778802  0.70836496  0.69263960    -0.81000
O586        O  0.82801813  0.72655997  0.67929879    -0.83600
C587        C  0.83371443  0.74025726  0.66218850     1.04100
O588        O  0.84085008  0.75214148  0.68299768    -0.76400
O589        O  0.85997114  0.76750139  0.74519451    -0.76500
C590        C  0.87479067  0.76298901  0.73318191     1.04000
Cr591      Cr  0.86824365  0.73105890  0.77530454     1.93700
Cr592      Cr  0.83774051  0.71390144  0.72853644     1.93200
Cr593      Cr  0.83823457  0.75333583  0.74358094     1.39100
O594        O  0.84807427  0.73260013  0.74938899    -1.21600
O595        O  0.64579008  0.74720505  0.72933121    -0.83900
O596        O  0.66664390  0.75836092  0.79282927    -0.80900
C597        C  0.67315428  0.77175279  0.77662784     0.99600
O598        O  0.66395730  0.78510706  0.77039994    -0.80900
O599        O  0.63369642  0.80558543  0.76097584    -0.83600
C600        C  0.62617104  0.80327692  0.72667902     1.04100
O601        O  0.62076640  0.78845711  0.71631513    -0.76400
O602        O  0.61844577  0.75287643  0.71520784    -0.76500
C603        C  0.63330777  0.74761519  0.70429413     1.04100
O604        O  0.62100862  0.73478710  0.78761617    -0.83900
O605        O  0.63961540  0.75074882  0.85003376    -0.80900
C606        C  0.64666995  0.76273774  0.87066935     0.99600
O607        O  0.65250695  0.77627636  0.85317252    -0.81000
O608        O  0.62243987  0.79391738  0.84012263    -0.83600
C609        C  0.60708157  0.79553820  0.82773060     1.04100
O610        O  0.60233221  0.78993175  0.79284393    -0.76400
O611        O  0.60101704  0.75450971  0.79522159    -0.76500
C612        C  0.60599309  0.73903396  0.79870827     1.04000
Cr613      Cr  0.64247009  0.74937033  0.78946636     1.93700
Cr614      Cr  0.64248908  0.78878003  0.80409199     1.93200
Cr615      Cr  0.61225409  0.77125244  0.75695337     1.39100
O616        O  0.63237315  0.76995573  0.78318733    -1.21600
O617        O  0.48704819  0.12402540  0.46167366    -0.83900
O618        O  0.45170915  0.12141381  0.46332954    -0.80900
C619        C  0.43714207  0.11558192  0.47386334     0.99600
O620        O  0.43508445  0.10790093  0.50807059    -0.80900
O621        O  0.45589713  0.07779580  0.51776942    -0.83600
C622        C  0.46927375  0.06874481  0.52447636     1.04100
O623        O  0.48254509  0.07563104  0.54011955    -0.76400
O624        O  0.49303937  0.09659644  0.47597772    -0.76500
C625        C  0.49226771  0.10907089  0.45075848     1.04100
O626        O  0.48548986  0.14167022  0.54178569    -0.83900
O627        O  0.45034747  0.13995504  0.53981739    -0.80900
C628        C  0.44502890  0.13509069  0.57483473     0.99600
O629        O  0.44665129  0.11960647  0.58690828    -0.81000
O630        O  0.46464193  0.08978614  0.59995657    -0.83600
C631        C  0.47787003  0.09618711  0.61732498     1.04100
O632        O  0.48973131  0.10329018  0.59651373    -0.76400
O633        O  0.50531061  0.12186937  0.53349167    -0.76500
C634        C  0.50093375  0.13683800  0.54522029     1.04000
Cr635      Cr  0.46886917  0.13015237  0.50365594     1.93700
Cr636      Cr  0.45196547  0.09946801  0.55103410     1.93200
Cr637      Cr  0.49107985  0.10010490  0.53603953     1.39100
O638        O  0.47045991  0.10992040  0.52982433    -1.21600
O639        O  0.48692658  0.90497497  0.55423002    -0.83900
O640        O  0.49627853  0.92662572  0.49043057    -0.80900
C641        C  0.50948948  0.93348269  0.50626314     0.99600
O642        O  0.52295587  0.92448760  0.51216151    -0.80900
O643        O  0.54416616  0.89466024  0.52038844    -0.83600
C644        C  0.54227470  0.88624817  0.55372218     1.04100
O645        O  0.52790602  0.87970111  0.56335612    -0.76400
O646        O  0.49268830  0.87729523  0.56598070    -0.76500
C647        C  0.48801930  0.89221778  0.57852425     1.04100
O648        O  0.47388888  0.88025108  0.49625409    -0.83900
O649        O  0.48878802  0.89962483  0.43347284    -0.80900
C650        C  0.50042393  0.90701209  0.41248271     0.99600
O651        O  0.51404366  0.91295345  0.42922914    -0.81000
O652        O  0.53309981  0.88348986  0.44058707    -0.83600
C653        C  0.53490370  0.86785455  0.45148996     1.04100
O654        O  0.52894852  0.86231887  0.48537160    -0.76400
O655        O  0.49364325  0.86073860  0.48432747    -0.76500
C656        C  0.47811774  0.86549236  0.48284063     1.04000
Cr657      Cr  0.48807430  0.90207194  0.49398195     1.93700
Cr658      Cr  0.52713891  0.90316313  0.47764520     1.93200
Cr659      Cr  0.51055644  0.87164253  0.52278152     1.39100
O660        O  0.50880613  0.89223704  0.49832674    -1.21600
O661        O  0.14547656  0.24651836  0.22788700    -0.83900
O662        O  0.16556923  0.25702233  0.29326330    -0.80900
C663        C  0.17224053  0.27038975  0.27732144     0.99600
O664        O  0.16313571  0.28383667  0.27125741    -0.80900
O665        O  0.13303192  0.30456276  0.26076696    -0.83600
C666        C  0.12580724  0.30248196  0.22601091     1.04100
O667        O  0.12051354  0.28773404  0.21482034    -0.76400
O668        O  0.11827455  0.25221009  0.21229404    -0.76500
C669        C  0.13329879  0.24716154  0.20206437     1.04100
O670        O  0.11995065  0.23364720  0.28368485    -0.83900
O671        O  0.13773733  0.24906244  0.34806426    -0.80900
C672        C  0.14450263  0.26091667  0.36963610     0.99600
O673        O  0.15064863  0.27453527  0.35308374    -0.81000
O674        O  0.12079967  0.29251996  0.33880667    -0.83600
C675        C  0.10556053  0.29423368  0.32552775     1.04100
O676        O  0.10120397  0.28876060  0.29022060    -0.76400
O677        O  0.09995314  0.25335117  0.29131643    -0.76500
C678        C  0.10488426  0.23785405  0.29443388     1.04000
Cr679      Cr  0.14139539  0.24815449  0.28776836     1.93700
Cr680      Cr  0.14129217  0.28745176  0.30385892     1.93200
Cr681      Cr  0.11156226  0.27030066  0.25429522     1.39100
O682        O  0.13137864  0.26880360  0.28169588    -1.21600
O683        O  0.36377216  0.24890642  0.31559816    -0.83900
O684        O  0.36004467  0.21353646  0.31522282    -0.80900
C685        C  0.35353367  0.19907046  0.30572527     0.99600
O686        O  0.34571673  0.19693318  0.27173133    -0.80900
O687        O  0.31644537  0.21857809  0.26078750    -0.83600
C688        C  0.30778608  0.23222826  0.25385225     1.04100
O689        O  0.31503240  0.24542426  0.23854700    -0.76400
O690        O  0.33648314  0.25529245  0.30263514    -0.76500
C691        C  0.34909619  0.25441441  0.32727103     1.04100
O692        O  0.38071722  0.24633420  0.23493944    -0.83900
O693        O  0.37820909  0.21092627  0.23846295    -0.80900
C694        C  0.37308231  0.20520501  0.20399072     0.99600
O695        O  0.35773403  0.20737800  0.19200505    -0.81000
O696        O  0.32876894  0.22667183  0.17849186    -0.83600
C697        C  0.33528054  0.23992484  0.16114920     1.04100
O698        O  0.34252402  0.25177367  0.18188395    -0.76400
O699        O  0.36171976  0.26685657  0.24442038    -0.76500
C700        C  0.37635766  0.26201800  0.23191207     1.04000
Cr701      Cr  0.36908152  0.23017292  0.27402288     1.93700
Cr702      Cr  0.33791621  0.21380719  0.22781908     1.93200
Cr703      Cr  0.33964617  0.25321815  0.24238534     1.39100
O704        O  0.34888210  0.23220606  0.24839985    -1.21600
C705        C  0.22309117  0.25876349  0.26190800     0.18500
C706        C  0.22587414  0.24148436  0.24932192    -0.10600
C707        C  0.24259409  0.23432101  0.24985500    -0.11500
C708        C  0.25673039  0.24433025  0.26316972     0.20100
C709        C  0.25395585  0.26164156  0.27542161    -0.13500
C710        C  0.23724947  0.26879945  0.27488768    -0.11800
C711        C  0.27415954  0.23721832  0.26304151     0.01000
C712        C  0.28932332  0.23318914  0.26097884    -0.31800
C713        C  0.20562866  0.26574973  0.26369684     0.02400
C714        C  0.19053337  0.26973815  0.26791348    -0.33500
H715        H  0.21508721  0.23348860  0.23943732     0.13500
H716        H  0.24447794  0.22098739  0.23997602     0.13300
H717        H  0.26472541  0.26961927  0.28549014     0.13100
H718        H  0.23536455  0.28210809  0.28494983     0.12200
C719        C  0.39678735  0.13609605  0.41017181     0.18500
C720        C  0.39617660  0.13721535  0.36698316    -0.10600
C721        C  0.38457429  0.14863551  0.34772534    -0.11500
C722        C  0.37346661  0.15907307  0.37141515     0.20100
C723        C  0.37373164  0.15761750  0.41459308    -0.13500
C724        C  0.38533376  0.14616930  0.43387186    -0.11800
C725        C  0.36320292  0.17238432  0.35137039     0.01000
C726        C  0.35698079  0.18432461  0.33202607    -0.31800
C727        C  0.41021043  0.12600784  0.43021641     0.02400
C728        C  0.42227797  0.11962689  0.44864997    -0.33500
H729        H  0.40504329  0.12968792  0.34823874     0.13500
H730        H  0.38467254  0.14974574  0.31435749     0.13300
H731        H  0.36538865  0.16571532  0.43336916     0.13100
H732        H  0.38576418  0.14560063  0.46729963     0.12200
C733        C  0.48123628  0.01759196  0.51614909     0.18500
C734        C  0.47729067  0.00536027  0.48541575    -0.10600
C735        C  0.48498655  0.98881990  0.48606537    -0.11500
C736        C  0.49676294  0.98431999  0.51734641     0.20100
C737        C  0.50065245  0.99652533  0.54818825    -0.13500
C738        C  0.49295330  0.01306819  0.54754143    -0.11800
C739        C  0.50436510  0.96703551  0.51792642     0.01000
C740        C  0.50867977  0.95189972  0.51517264    -0.31800
C741        C  0.47390765  0.03498705  0.51500803     0.02400
C742        C  0.46986398  0.05022038  0.51685269    -0.33500
H743        H  0.46834936  0.00862412  0.46085301     0.13500
H744        H  0.48175366  0.97952432  0.46210793     0.13300
H745        H  0.50962738  0.99327497  0.57269041     0.13100
H746        H  0.49621594  0.02238032  0.57143988     0.12200
C747        C  0.58218939  0.86529822  0.61807604     0.18500
C748        C  0.58788937  0.86907335  0.65825887    -0.10600
C749        C  0.59935084  0.85775080  0.67856857    -0.11500
C750        C  0.60522024  0.84256312  0.65888703     0.20100
C751        C  0.59984821  0.83906400  0.61836388    -0.13500
C752        C  0.58842691  0.85035834  0.59810400    -0.11800
C753        C  0.61534331  0.82976181  0.68129871     0.01000
C754        C  0.62185554  0.81804494  0.70099189    -0.31800
C755        C  0.56901326  0.87580124  0.59813120     0.02400
C756        C  0.55712211  0.88230345  0.57920189    -0.33500
H757        H  0.58312289  0.88047578  0.67427429     0.13500
H758        H  0.60322670  0.86057918  0.71002708     0.13300
H759        H  0.60408691  0.82733288  0.60283556     0.13100
H760        H  0.58407044  0.84716453  0.56719680     0.12200
C761        C  0.72374549  0.75969243  0.76418814     0.18500
C762        C  0.72953241  0.74993749  0.73024703    -0.10600
C763        C  0.74578826  0.74181430  0.73122964    -0.11500
C764        C  0.75638611  0.74324813  0.76627761     0.20100
C765        C  0.75057878  0.75297627  0.80022990    -0.13500
C766        C  0.73433185  0.76109889  0.79924371    -0.11800
C767        C  0.77366258  0.73586532  0.76621282     0.01000
C768        C  0.78878700  0.73183009  0.76364023    -0.31800
C769        C  0.70650819  0.76715490  0.76434373     0.02400
C770        C  0.69143054  0.77127331  0.76752020    -0.33500
H771        H  0.72145094  0.74853661  0.70311473     0.13500
H772        H  0.75013299  0.73450933  0.70455671     0.13300
H773        H  0.75865383  0.75437881  0.82737189     0.13100
H774        H  0.72999101  0.76840366  0.82592134     0.12200
C775        C  0.08087903  0.36397002  0.11868346     0.18500
C776        C  0.08613021  0.34839505  0.09984303    -0.10600
C777        C  0.09788177  0.33729841  0.11965083    -0.11500
C778        C  0.10458627  0.34162926  0.15856624     0.20100
C779        C  0.09972567  0.35744727  0.17697802    -0.13500
C780        C  0.08793705  0.36857541  0.15711602    -0.11800
C781        C  0.11499574  0.32906039  0.18099733     0.01000
C782        C  0.12161268  0.31739694  0.20068152    -0.31800
C783        C  0.06744228  0.37440763  0.09949021     0.02400
C784        C  0.05543301  0.38101694  0.08117093    -0.33500
H785        H  0.08076182  0.34457855  0.07027715     0.13500
H786        H  0.10133660  0.32508199  0.10513667     0.13300
H787        H  0.10464074  0.36093622  0.20720302     0.13100
H788        H  0.08398410  0.38050409  0.17222244     0.12200
C789        C  0.89815305  0.63891471  0.91768867     0.18500
C790        C  0.88802706  0.63278685  0.88474058    -0.10600
C791        C  0.87632012  0.64395421  0.86470702    -0.11500
C792        C  0.87460194  0.66133957  0.87748796     0.20100
C793        C  0.88439713  0.66729053  0.91112166    -0.13500
C794        C  0.89606974  0.65615865  0.93109100    -0.11800
C795        C  0.86417411  0.67356174  0.85403764     0.01000
C796        C  0.85766053  0.68492363  0.83319427    -0.31800
C797        C  0.91137829  0.62806981  0.93650521     0.02400
C798        C  0.92343750  0.62104554  0.95377067    -0.33500
H799        H  0.88948570  0.61953859  0.87387979     0.13500
H800        H  0.86897966  0.63916571  0.83855728     0.13300
H801        H  0.88337712  0.68069549  0.92119537     0.13100
H802        H  0.90380565  0.66114842  0.95637912     0.12200
C803        C  0.98221617  0.51727067  0.01186130     0.18500
C804        C  0.99372784  0.51202714  0.98069208    -0.10600
C805        C  0.00134764  0.49543767  0.98182149    -0.11500
C806        C  0.99765237  0.48390329  0.01428160     0.20100
C807        C  0.98608674  0.48911708  0.04535266    -0.13500
C808        C  0.97846701  0.50570403  0.04422300    -0.11800
C809        C  0.00482290  0.46640258  0.01432678     0.01000
C810        C  0.00885558  0.45116608  0.01178109    -0.31800
C811        C  0.97526353  0.53486778  0.01222174     0.02400
C812        C  0.97144070  0.55015028  0.01524773    -0.33500
H813        H  0.99692172  0.52081194  0.95565125     0.13500
H814        H  0.01008505  0.49159615  0.95730714     0.13300
H815        H  0.98291336  0.48034056  0.07042585     0.13100
H816        H  0.96974975  0.50955070  0.06877222     0.12200
C817        C  0.53930623  0.16568762  0.59886451     0.18500
C818        C  0.55270774  0.17309881  0.57550742    -0.10600
C819        C  0.56667201  0.18127191  0.59523690    -0.11500
C820        C  0.56735561  0.18206763  0.63847871     0.20100
C821        C  0.55391873  0.17471143  0.66181610    -0.13500
C822        C  0.53996328  0.16654688  0.64210055    -0.11800
C823        C  0.58170569  0.19051767  0.65900361     0.01000
C824        C  0.59320218  0.19775564  0.67768455    -0.31800
C825        C  0.52521364  0.15667874  0.57867011     0.02400
C826        C  0.51380105  0.14825740  0.56268532    -0.33500
H827        H  0.55241764  0.17246526  0.54208440     0.13500
H828        H  0.57693979  0.18691906  0.57680266     0.13300
H829        H  0.55425227  0.17524665  0.69525138     0.13100
H830        H  0.52975041  0.16081186  0.66056421     0.12200
C831        C  0.93832118  0.33592392  0.93139948     0.18500
C832        C  0.94190803  0.32329927  0.90135381    -0.10600
C833        C  0.92835294  0.31489613  0.88070064    -0.11500
C834        C  0.91112174  0.31906850  0.88991517     0.20100
C835        C  0.90752543  0.33158881  0.92020577    -0.13500
C836        C  0.92108621  0.33999434  0.94087048    -0.11800
C837        C  0.89721840  0.31071389  0.86770439     0.01000
C838        C  0.88607325  0.30354587  0.84781648    -0.31800
C839        C  0.95227797  0.34516892  0.95133190     0.02400
C840        C  0.96370606  0.35368660  0.96683901    -0.33500
H841        H  0.95516035  0.32008895  0.89360429     0.13500
H842        H  0.93130885  0.30525974  0.85729899     0.13300
H843        H  0.89427332  0.33495281  0.92757300     0.13100
H844        H  0.91813714  0.34978814  0.96390363     0.12200
C845        C  0.75732796  0.25499840  0.76100028     0.18500
C846        C  0.74721569  0.25540517  0.79699114    -0.10600
C847        C  0.73078840  0.24761361  0.79770890    -0.11500
C848        C  0.72427553  0.23920876  0.76251531     0.20100
C849        C  0.73442200  0.23870285  0.72652406    -0.13500
C850        C  0.75088139  0.24649698  0.72581435    -0.11800
C851        C  0.70673295  0.23236582  0.76244169     0.01000
C852        C  0.69142190  0.22893239  0.76038840    -0.31800
C853        C  0.77462251  0.26244240  0.76120598     0.02400
C854        C  0.78961683  0.26692071  0.76466048    -0.33500
H855        H  0.75203935  0.26174589  0.82457824     0.13500
H856        H  0.72309284  0.24829983  0.82562929     0.13300
H857        H  0.72954885  0.23243114  0.69889783     0.13100
H858        H  0.75856514  0.24588585  0.69786351     0.12200
C859        C  0.97734519  0.40454038  0.28592538     0.18500
C860        C  0.98512589  0.41721337  0.26098788    -0.10600
C861        C  0.98500508  0.41535336  0.21802819    -0.11500
C862        C  0.97707373  0.40083381  0.19987054     0.20100
C863        C  0.96908323  0.38828194  0.22479301    -0.13500
C864        C  0.96920068  0.39014357  0.26774855    -0.11800
C865        C  0.97810912  0.39830445  0.15594377     0.01000
C866        C  0.98047435  0.39592046  0.11960772    -0.31800
C867        C  0.97801420  0.40604174  0.33015020     0.02400
C868        C  0.97821378  0.40646085  0.36733246    -0.33500
H869        H  0.99146808  0.42838085  0.27474735     0.13500
H870        H  0.99133152  0.42506918  0.19902860     0.13300
H871        H  0.96302681  0.37694415  0.21107986     0.13100
H872        H  0.96315710  0.38025968  0.28678893     0.12200
C873        C  0.00208957  0.40073140  0.69954898     0.18500
C874        C  0.00272131  0.38599243  0.72491081    -0.10600
C875        C  0.00196701  0.38781169  0.76778549    -0.11500
C876        C  0.00052124  0.40437486  0.78550512     0.20100
C877        C  0.00013106  0.41916254  0.76020761    -0.13500
C878        C  0.00087894  0.41733869  0.71723941    -0.11800
C879        C  0.99949015  0.40602685  0.82964394     0.01000
C880        C  0.99929478  0.40629136  0.86682598    -0.31800
C881        C  0.00140924  0.39863110  0.65548656     0.02400
C882        C  0.99910679  0.39630460  0.61912590    -0.33500
H883        H  0.00351070  0.37309046  0.71152275     0.13500
H884        H  0.00233446  0.37630247  0.78710057     0.13300
H885        H  0.99907242  0.43203383  0.77364185     0.13100
H886        H  0.00023765  0.42881144  0.69785166     0.12200
C887        C  0.06749474  0.31870454  0.39095257     0.18500
C888        C  0.05050892  0.31242006  0.38756994    -0.10600
C889        C  0.03688350  0.32117992  0.40709130    -0.11500
C890        C  0.04016843  0.33627609  0.43013444     0.20100
C891        C  0.05716435  0.34250357  0.43364967    -0.13500
C892        C  0.07078005  0.33375047  0.41413816    -0.11800
C893        C  0.02614005  0.34562708  0.44945368     0.01000
C894        C  0.01480149  0.35419916  0.46511872    -0.31800
C895        C  0.08144581  0.31000165  0.36973930     0.02400
C896        C  0.09279058  0.30283236  0.35055094    -0.33500
H897        H  0.04778472  0.30083655  0.36959630     0.13500
H898        H  0.02380835  0.31626232  0.40399519     0.13300
H899        H  0.05987356  0.35419360  0.45124214     0.13100
H900        H  0.08382739  0.33878192  0.41686563     0.12200
C901        C  0.87374259  0.34126713  0.65578076     0.18500
C902        C  0.87973291  0.35594787  0.67733607    -0.10600
C903        C  0.89179924  0.36725754  0.65907484    -0.11500
C904        C  0.89798675  0.36396576  0.61908999     0.20100
C905        C  0.89154025  0.34961740  0.59708684    -0.13500
C906        C  0.87950977  0.33832412  0.61532339    -0.11800
C907        C  0.91178807  0.37436721  0.60136721     0.01000
C908        C  0.92395064  0.38096377  0.58362150    -0.31800
C909        C  0.86338848  0.32821450  0.67665700     0.02400
C910        C  0.85707571  0.31630242  0.69601994    -0.33500
H911        H  0.87555146  0.35831273  0.70878729     0.13500
H912        H  0.89668495  0.37822226  0.67657516     0.13300
H913        H  0.89623752  0.34683467  0.56624235     0.13100
H914        H  0.87518106  0.32696556  0.59839853     0.12200
C915        C  0.00063271  0.60213861  0.82689698     0.18500
C916        C  0.99825390  0.58539313  0.81073622    -0.10600
C917        C  0.99714383  0.58297152  0.76805445    -0.11500
C918        C  0.99835821  0.59731007  0.74155205     0.20100
C919        C  0.00091989  0.61402664  0.75770888    -0.13500
C920        C  0.00202889  0.61644591  0.80035420    -0.11800
C921        C  0.99725220  0.59498721  0.69771673     0.01000
C922        C  0.99726420  0.59427278  0.66064037    -0.31800
C923        C  0.00035412  0.60478098  0.87069933     0.02400
C924        C  0.99834910  0.60696332  0.90713743    -0.33500
H925        H  0.99700876  0.57427947  0.83112201     0.13500
H926        H  0.99522847  0.56999403  0.75577147     0.13300
H927        H  0.00193948  0.62517863  0.73736278     0.13100
H928        H  0.00371605  0.62945888  0.81262971     0.12200
C929        C  0.98215756  0.60145536  0.32710589     0.18500
C930        C  0.99779070  0.59684701  0.30808009    -0.10600
C931        C  0.99846649  0.59440826  0.26533536    -0.11500
C932        C  0.98350135  0.59655839  0.24154443     0.20100
C933        C  0.96784956  0.60105763  0.26060796    -0.13500
C934        C  0.96717463  0.60349950  0.30334405    -0.11800
C935        C  0.98421859  0.59479582  0.19743887     0.01000
C936        C  0.98379590  0.59438950  0.16030419    -0.31800
C937        C  0.98167682  0.60436767  0.37088808     0.02400
C938        C  0.98267097  0.60678219  0.40752951    -0.33500
H939        H  0.00946136  0.59528026  0.32624083     0.13500
H940        H  0.01064330  0.59101813  0.25083854     0.13300
H941        H  0.95622574  0.60283502  0.24238956     0.13100
H942        H  0.95504465  0.60710156  0.31777338     0.12200
C943        C  0.93799763  0.66429125  0.59972272     0.18500
C944        C  0.92367442  0.65478557  0.61383513    -0.10600
C945        C  0.90993642  0.66329998  0.63341211    -0.11500
C946        C  0.91043628  0.68137764  0.63897740     0.20100
C947        C  0.92472837  0.69089881  0.62474199    -0.13500
C948        C  0.93847442  0.68237974  0.60515611    -0.11800
C949        C  0.89657069  0.69007102  0.66041704     0.01000
C950        C  0.88544597  0.69741613  0.67989936    -0.31800
C951        C  0.95219731  0.65540426  0.58001772     0.02400
C952        C  0.96370457  0.64718056  0.56408796    -0.33500
H953        H  0.92316692  0.64078796  0.60987538     0.13500
H954        H  0.89900408  0.65578962  0.64444440     0.13300
H955        H  0.92529764  0.70487547  0.62904026     0.13100
H956        H  0.94947937  0.68986425  0.59445044     0.12200
C957        C  0.99571557  0.51735941  0.51262075     0.18500
C958        C  0.98046320  0.51383938  0.49052869    -0.10600
C959        C  0.97279388  0.49727392  0.49226858    -0.11500
C960        C  0.98022668  0.48407175  0.51635313     0.20100
C961        C  0.99542599  0.48762153  0.53856104    -0.13500
C962        C  0.00309288  0.50417033  0.53680850    -0.11800
C963        C  0.97308895  0.46658528  0.51616298     0.01000
C964        C  0.96933249  0.45129932  0.51344223    -0.31800
C965        C  0.00313915  0.53473958  0.51238984     0.02400
C966        C  0.00742190  0.54989643  0.51506552    -0.33500
H967        H  0.97447409  0.52391317  0.47202705     0.13500
H968        H  0.96115614  0.49473687  0.47460826     0.13300
H969        H  0.00143836  0.47754398  0.55701020     0.13100
H970        H  0.01475085  0.50668342  0.55440673     0.12200
C971        C  0.43961324  0.83679810  0.42916355     0.18500
C972        C  0.42686506  0.82793355  0.45177703    -0.10600
C973        C  0.41320724  0.81955507  0.43126117    -0.11500
C974        C  0.41219613  0.82001698  0.38800609     0.20100
C975        C  0.42495224  0.82886827  0.36547623    -0.13500
C976        C  0.43858385  0.83722493  0.38594823    -0.11800
C977        C  0.39824270  0.81133715  0.36650205     0.01000
C978        C  0.38708053  0.80403116  0.34684873    -0.31800
C979        C  0.45352817  0.84583529  0.44999405     0.02400
C980        C  0.46501231  0.85422354  0.46579954    -0.33500
H981        H  0.42744947  0.82754816  0.48520192     0.13500
H982        H  0.40345575  0.81274958  0.44907876     0.13300
H983        H  0.42435505  0.82932280  0.33205284     0.13100
H984        H  0.44828942  0.84407379  0.36807595     0.12200
C985        C  0.10410202  0.65952523  0.37077129     0.18500
C986        C  0.10243394  0.65990315  0.41390907    -0.10600
C987        C  0.09077977  0.64869060  0.43388146    -0.11500
C988        C  0.08064339  0.63698158  0.41097100     0.20100
C989        C  0.08255133  0.63636850  0.36790714    -0.13500
C990        C  0.09421637  0.64757572  0.34793297    -0.11800
C991        C  0.06739365  0.62671200  0.43140866     0.01000
C992        C  0.05551676  0.62006642  0.45016396    -0.31800
C993        C  0.11467295  0.67236873  0.34964404     0.02400
C994        C  0.12146913  0.68404036  0.33031070    -0.33500
H995        H  0.10979014  0.66917372  0.43200329     0.13500
H996        H  0.08934593  0.64947804  0.46712752     0.13300
H997        H  0.07471222  0.62755719  0.34967903     0.13100
H998        H  0.09517707  0.64724443  0.31454939     0.12200
C999        C  0.04247558  0.66508291  0.09427506     0.18500
C1000       C  0.03968495  0.67323147  0.13239377    -0.10600
C1001       C  0.05338067  0.68143259  0.15283593    -0.11500
C1002       C  0.06996197  0.68152617  0.13533431     0.20100
C1003       C  0.07276924  0.67344496  0.09709697    -0.13500
C1004       C  0.05904687  0.66522441  0.07661846    -0.11800
C1005       C  0.08398742  0.68985844  0.15698723     0.01000
C1006       C  0.09498448  0.69711094  0.17708255    -0.31800
C1007       C  0.02847210  0.65601127  0.07427244     0.02400
C1008       C  0.01687242  0.64762199  0.05922961    -0.33500
H1009       H  0.02696629  0.67311678  0.14645801     0.13500
H1010       H  0.05106160  0.68762221  0.18240313     0.13300
H1011       H  0.08553516  0.67342009  0.08328567     0.13100
H1012       H  0.06137973  0.65887108  0.04725764     0.12200
C1013       C  0.25683256  0.75933035  0.26498006     0.18500
C1014       C  0.25156623  0.74881033  0.29820830    -0.10600
C1015       C  0.23500340  0.74125711  0.29868253    -0.11500
C1016       C  0.22351412  0.74407814  0.26583614     0.20100
C1017       C  0.22875260  0.75466612  0.23272047    -0.13500
C1018       C  0.24530966  0.76221559  0.23224487    -0.11800
C1019       C  0.20619707  0.73665606  0.26625226     0.01000
C1020       C  0.19110469  0.73239522  0.26357862    -0.31800
C1021       C  0.27428427  0.76641900  0.26395739     0.02400
C1022       C  0.28950392  0.77030196  0.26559675    -0.33500
H1023       H  0.26031720  0.74635221  0.32367676     0.13500
H1024       H  0.23117967  0.73322302  0.32462180     0.13300
H1025       H  0.22002248  0.75708481  0.20718983     0.13100
H1026       H  0.24914703  0.77020598  0.20624195     0.12200
C1027       C  0.49830254  0.09563690  0.24296308     0.18500
C1028       C  0.49250411  0.08245433  0.26942179    -0.10600
C1029       C  0.49302536  0.08494227  0.31217680    -0.11500
C1030       C  0.49938178  0.10059069  0.32849340     0.20100
C1031       C  0.50530943  0.11369908  0.30201321    -0.13500
C1032       C  0.50479049  0.11121387  0.25931038    -0.11800
C1033       C  0.49886034  0.10357805  0.37222602     0.01000
C1034       C  0.49689927  0.10618727  0.40856076    -0.31800
C1035       C  0.49764350  0.09336374  0.19901025     0.02400
C1036       C  0.49796848  0.09278727  0.16189806    -0.33500
H1037       H  0.48747898  0.07036270  0.25703378     0.13500
H1038       H  0.48828585  0.07478452  0.33246003     0.13300
H1039       H  0.51011778  0.12589166  0.31434216     0.13100
H1040       H  0.50931631  0.12147527  0.23903542     0.12200
C1041       C  0.47879128  0.09653725  0.74273080     0.18500
C1042       C  0.46531927  0.10531162  0.76287681    -0.10600
C1043       C  0.46542089  0.10684576  0.80590514    -0.11500
C1044       C  0.47898699  0.09959725  0.82880087     0.20100
C1045       C  0.49229239  0.09058997  0.80866664    -0.13500
C1046       C  0.49219279  0.08906114  0.76569426    -0.11800
C1047       C  0.47985483  0.10212718  0.87267221     0.01000
C1048       C  0.48206646  0.10448184  0.90902947    -0.31800
C1049       C  0.47913332  0.09563324  0.69847369     0.02400
C1050       C  0.47914150  0.09544460  0.66132597    -0.33500
H1051       H  0.45490454  0.11115908  0.74531422     0.13500
H1052       H  0.45511895  0.11390068  0.82121287     0.13300
H1053       H  0.50288007  0.08501007  0.82613035     0.13100
H1054       H  0.50266778  0.08227891  0.75035942     0.12200
C1055       C  0.40966222  0.18009288  0.13515767     0.18500
C1056       C  0.42680284  0.18563826  0.14046557    -0.10600
C1057       C  0.44029984  0.17709198  0.12002936    -0.11500
C1058       C  0.43676421  0.16293255  0.09408887     0.20100
C1059       C  0.41959464  0.15751027  0.08830037    -0.13500
C1060       C  0.40607551  0.16606989  0.10877183    -0.11800
C1061       C  0.45081157  0.15355030  0.07495337     0.01000
C1062       C  0.46257123  0.14514667  0.06061729    -0.31800
C1063       C  0.39592912  0.18856106  0.15771570     0.02400
C1064       C  0.38510726  0.19595102  0.17814234    -0.33500
H1065       H  0.42975669  0.19644262  0.16080935     0.13500
H1066       H  0.45350125  0.18137186  0.12489557     0.13300
H1067       H  0.41668725  0.14653577  0.06843782     0.13100
H1068       H  0.39289259  0.16163632  0.10442947     0.12200
C1069       C  0.58043044  0.13830865  0.91365018     0.31300
C1070       C  0.58515658  0.13546580  0.87237877    -0.10600
C1071       C  0.59647452  0.14700967  0.85239212    -0.11500
C1072       C  0.60317225  0.16149226  0.87347376     0.20100
C1073       C  0.59862722  0.16419013  0.91491360    -0.13500
C1074       C  0.58732965  0.15264998  0.93489147    -0.11800
C1075       C  0.61346890  0.17429340  0.85163440     0.01000
C1076       C  0.62019155  0.18570193  0.83139681    -0.31800
C1077       C  0.56761376  0.12738767  0.93354949     0.02400
C1078       C  0.55596605  0.12030600  0.95211108    -0.33500
H1079       H  0.57980699  0.12457169  0.85540106     0.13500
H1080       H  0.59967989  0.14486508  0.82020850     0.13300
H1081       H  0.60349250  0.17542126  0.93148882     0.13100
H1082       H  0.58366136  0.15513920  0.96665768     0.12200
C1083       C  0.48558440  0.90486168  0.78723527     0.18500
C1084       C  0.49411257  0.91654246  0.76099023    -0.10600
C1085       C  0.49320098  0.91424454  0.71819176    -0.11500
C1086       C  0.48373366  0.90030023  0.70169614     0.20100
C1087       C  0.47514009  0.88872202  0.72798098    -0.13500
C1088       C  0.47605099  0.89101205  0.77066805    -0.11800
C1089       C  0.48346824  0.89740169  0.65794127     0.01000
C1090       C  0.48449476  0.89480182  0.62140041    -0.31800
C1091       C  0.48642617  0.90686688  0.83122153     0.02400
C1092       C  0.48567935  0.90702111  0.86831057    -0.33500
H1093       H  0.50149955  0.92730272  0.77356000     0.13500
H1094       H  0.49997877  0.92320709  0.69802596     0.13300
H1095       H  0.46788287  0.87785260  0.71550379     0.13100
H1096       H  0.46940104  0.88193071  0.79078378     0.12200
C1097       C  0.49722720  0.90632487  0.28773661     0.18500
C1098       C  0.48245280  0.89965509  0.26835644    -0.10600
C1099       C  0.48253022  0.89668300  0.22581482    -0.11500
C1100       C  0.49739973  0.90033100  0.20261247     0.20100
C1101       C  0.51212570  0.90714405  0.22192581    -0.13500
C1102       C  0.51204827  0.91011709  0.26449454    -0.11800
C1103       C  0.49742375  0.89712416  0.15898871     0.01000
C1104       C  0.49625730  0.89452578  0.12247904    -0.31800
C1105       C  0.49753154  0.90826344  0.33175328     0.02400
C1106       C  0.49838206  0.90851432  0.36880914    -0.33500
H1107       H  0.47098505  0.89655797  0.28617767     0.13500
H1108       H  0.47106806  0.89143709  0.21107166     0.13300
H1109       H  0.52366305  0.91002849  0.20417062     0.13100
H1110       H  0.52357809  0.91515217  0.27933864     0.12200
C1111       C  0.56923310  0.81928322  0.89446453     0.18500
C1112       C  0.55445059  0.82419514  0.87234922    -0.10600
C1113       C  0.54064426  0.83220948  0.89266853    -0.11500
C1114       C  0.54153584  0.83533235  0.93523052     0.20100
C1115       C  0.55629431  0.83037447  0.95744383    -0.13500
C1116       C  0.57012543  0.82233862  0.93708757    -0.11800
C1117       C  0.52758092  0.84427639  0.95551016     0.01000
C1118       C  0.51609748  0.85275861  0.97057895    -0.31800
C1119       C  0.58338332  0.81109885  0.87316183     0.02400
C1120       C  0.59462093  0.80412253  0.85339693    -0.33500
H1121       H  0.55363123  0.82189188  0.83938048     0.13500
H1122       H  0.52934440  0.83609210  0.87516511     0.13300
H1123       H  0.55715573  0.83283501  0.99033777     0.13100
H1124       H  0.58149943  0.81858718  0.95446810     0.12200
C1125       C  0.39915255  0.86453581  0.11429249     0.18500
C1126       C  0.39907810  0.86322105  0.15748225    -0.10600
C1127       C  0.38786317  0.85152820  0.17722405    -0.11500
C1128       C  0.37662603  0.84102128  0.15399900     0.20100
C1129       C  0.37655931  0.84247349  0.11082626    -0.13500
C1130       C  0.38777134  0.85418110  0.09107706    -0.11800
C1131       C  0.36620347  0.82793594  0.17446857     0.01000
C1132       C  0.35945540  0.81629192  0.19386244    -0.31800
C1133       C  0.41191176  0.87524193  0.09361038     0.02400
C1134       C  0.42364528  0.88204214  0.07480925    -0.33500
H1135       H  0.40796224  0.87091894  0.17582237     0.13500
H1136       H  0.38823526  0.85039842  0.21057962     0.13300
H1137       H  0.36813389  0.83430123  0.09241383     0.13100
H1138       H  0.38785885  0.85485102  0.05764146     0.12200
C1139       C  0.49975528  0.01646080  0.01090631     0.18500
C1140       C  0.49305809  0.00922500  0.97446244    -0.10600
C1141       C  0.48508615  0.99280485  0.97514662    -0.11500
C1142       C  0.48361304  0.98351369  0.01232169     0.20100
C1143       C  0.49038361  0.99072010  0.04869252    -0.13500
C1144       C  0.49835661  0.00712222  0.04800574    -0.11800
C1145       C  0.47621499  0.96616563  0.01255786     0.01000
C1146       C  0.47215484  0.95095933  0.01036832    -0.31800
C1147       C  0.50680259  0.03395591  0.01115880     0.02400
C1148       C  0.51047900  0.04921127  0.01481765    -0.33500
H1149       H  0.49386072  0.01632612  0.94562160     0.13500
H1150       H  0.48010805  0.98734115  0.94667765     0.13300
H1151       H  0.48954099  0.98364781  0.07756682     0.13100
H1152       H  0.50329383  0.01259360  0.07650705     0.12200
C1153       C  0.64205622  0.25894784  0.03447254     0.18500
C1154       C  0.64340822  0.27488069  0.01363608    -0.10600
C1155       C  0.64151932  0.27550904  0.97071527    -0.11500
C1156       C  0.63824908  0.26020018  0.94859093     0.20100
C1157       C  0.63677151  0.24429550  0.96948239    -0.13500
C1158       C  0.63866141  0.24366788  0.01235938    -0.11800
C1159       C  0.63654807  0.26058820  0.90444412     0.01000
C1160       C  0.63498714  0.25910511  0.86763345    -0.31800
C1161       C  0.64382826  0.25837479  0.07859320     0.02400
C1162       C  0.64466309  0.25865174  0.11570139    -0.33500
H1163       H  0.64592448  0.28678601  0.03055632     0.13500
H1164       H  0.64264830  0.28786748  0.95483322     0.13300
H1165       H  0.63420729  0.23238731  0.95260235     0.13100
H1166       H  0.63748542  0.23130809  0.02822547     0.12200
C1167       C  0.64632088  0.24137277  0.53492789     0.18500
C1168       C  0.63071115  0.23508770  0.51876012    -0.10600
C1169       C  0.62796707  0.23501332  0.47615679    -0.11500
C1170       C  0.64084549  0.24119428  0.44954080     0.20100
C1171       C  0.65650897  0.24743145  0.46565335    -0.13500
C1172       C  0.65925917  0.24750745  0.50835369    -0.11800
C1173       C  0.63768784  0.24182334  0.40587809     0.01000
C1174       C  0.63496010  0.24355562  0.36952413    -0.31800
C1175       C  0.64875522  0.24155774  0.57885422     0.02400
C1176       C  0.64898985  0.24095474  0.61596912    -0.33500
H1177       H  0.62062418  0.23034441  0.53912453     0.13500
H1178       H  0.61577319  0.23028531  0.46401089     0.13300
H1179       H  0.66649808  0.25235593  0.44526609     0.13100
H1180       H  0.67136216  0.25241854  0.52060152     0.12200
C1181       C  0.55806377  0.17204941  0.14295545     0.18500
C1182       C  0.56352910  0.18647894  0.11989216    -0.10600
C1183       C  0.57204716  0.20032464  0.13927082    -0.11500
C1184       C  0.57515266  0.19985959  0.18189144     0.20100
C1185       C  0.56979222  0.18538090  0.20498130    -0.13500
C1186       C  0.56125374  0.17151224  0.18557040    -0.11800
C1187       C  0.58423403  0.21403536  0.20153697     0.01000
C1188       C  0.59266022  0.22561439  0.21679752    -0.31800
C1189       C  0.54907374  0.15797491  0.12265842     0.02400
C1190       C  0.54151908  0.14682982  0.10347122    -0.33500
H1191       H  0.56117611  0.18703874  0.08692523     0.13500
H1192       H  0.57622977  0.21137286  0.12102266     0.13300
H1193       H  0.57222707  0.18480806  0.23790875     0.13100
H1194       H  0.55712781  0.16042161  0.20373936     0.12200
C1195       C  0.83603175  0.24169602  0.49158820     0.18500
C1196       C  0.85236394  0.24459054  0.50898634    -0.10600
C1197       C  0.85456547  0.24361435  0.55169177    -0.11500
C1198       C  0.84045353  0.23968610  0.57714902     0.20100
C1199       C  0.82410192  0.23674159  0.55980469    -0.13500
C1200       C  0.82189747  0.23770727  0.51699327    -0.11800
C1201       C  0.84267416  0.23969872  0.62111927     0.01000
C1202       C  0.84498604  0.24146870  0.65759942    -0.31800
C1203       C  0.83406413  0.24233356  0.44756382     0.02400
C1204       C  0.83376083  0.24209209  0.41043199    -0.33500
H1205       H  0.86338003  0.24760428  0.48953868     0.13500
H1206       H  0.86722376  0.24605726  0.56488412     0.13300
H1207       H  0.81308436  0.23384204  0.57933532     0.13100
H1208       H  0.80923248  0.23537025  0.50374904     0.12200
C1209       C  0.84158773  0.26063656  0.07745498     0.18500
C1210       C  0.84288891  0.24468935  0.05670751    -0.10600
C1211       C  0.84084833  0.24398852  0.01390482    -0.11500
C1212       C  0.83747195  0.25923813  0.99172989     0.20100
C1213       C  0.83616618  0.27520411  0.01244990    -0.13500
C1214       C  0.83820928  0.27590635  0.05532244    -0.11800
C1215       C  0.83584719  0.25859746  0.94761501     0.01000
C1216       C  0.83524293  0.25871194  0.91049537    -0.31800
C1217       C  0.84376241  0.26109030  0.12143114     0.02400
C1218       C  0.84579329  0.25944671  0.15803874    -0.33500
H1219       H  0.84552207  0.23281419  0.07362480     0.13500
H1220       H  0.84197770  0.23160633  0.99811560     0.13300
H1221       H  0.83365320  0.28708298  0.99545819     0.13100
H1222       H  0.83720315  0.28829406  0.07112682     0.12200
C1223       C  0.92155717  0.32895912  0.38682786     0.18500
C1224       C  0.90357061  0.32936715  0.38171872    -0.10600
C1225       C  0.89519224  0.31594829  0.36047516    -0.11500
C1226       C  0.90475045  0.30204570  0.34425496     0.20100
C1227       C  0.92277968  0.30177092  0.34875887    -0.13500
C1228       C  0.93116986  0.31521145  0.37001864    -0.11800
C1229       C  0.89587196  0.28781989  0.32452104     0.01000
C1230       C  0.88734979  0.27622619  0.30977675    -0.31800
C1231       C  0.93003955  0.34233258  0.41046738     0.02400
C1232       C  0.93707218  0.35325825  0.43126619    -0.33500
H1233       H  0.89601208  0.33991685  0.39463455     0.13500
H1234       H  0.88124210  0.31627610  0.35723543     0.13300
H1235       H  0.93029391  0.29107350  0.33640715     0.13100
H1236       H  0.94508918  0.31476351  0.37384647     0.12200
C1237       C  0.72329357  0.25702713  0.26265859     0.18500
C1238       C  0.73110580  0.25146953  0.22576712    -0.10600
C1239       C  0.74772469  0.24409432  0.22616655    -0.11500
C1240       C  0.75671458  0.24209324  0.26349919     0.20100
C1241       C  0.74885980  0.24754897  0.30042696    -0.13500
C1242       C  0.73223923  0.25492574  0.30002706    -0.11800
C1243       C  0.77431786  0.23544516  0.26385942     0.01000
C1244       C  0.78956485  0.23181194  0.26636203    -0.31800
C1245       C  0.70586365  0.26413075  0.26212194     0.02400
C1246       C  0.69075474  0.26828499  0.25934588    -0.33500
H1247       H  0.72434420  0.25283831  0.19664444     0.13500
H1248       H  0.75360527  0.24008117  0.19732667     0.13300
H1249       H  0.75564299  0.24622589  0.32953371     0.13100
H1250       H  0.72637812  0.25898624  0.32885180     0.12200
C1251       C  0.57968951  0.36313894  0.40839176     0.18500
C1252       C  0.59743269  0.36712136  0.40749380    -0.10600
C1253       C  0.60912722  0.35598017  0.38726279    -0.11500
C1254       C  0.60315677  0.34075590  0.36791594     0.20100
C1255       C  0.58542607  0.33686488  0.36881536    -0.13500
C1256       C  0.57379103  0.34795500  0.38891580    -0.11800
C1257       C  0.61486269  0.32892888  0.34694595     0.01000
C1258       C  0.62212213  0.31756364  0.32759654    -0.31800
C1259       C  0.56744291  0.37399001  0.43053025     0.02400
C1260       C  0.55596117  0.38090142  0.45007139    -0.33500
H1261       H  0.60223168  0.37873462  0.42262791     0.13500
H1262       H  0.62277488  0.35919133  0.38687745     0.13300
H1263       H  0.58058013  0.32517556  0.35406415     0.13100
H1264       H  0.56017124  0.34460254  0.38953351     0.12200
C1265       C  0.57784789  0.30294653  0.67887512     0.18500
C1266       C  0.57627205  0.31897847  0.69924735    -0.10600
C1267       C  0.56706724  0.33262692  0.68085153    -0.11500
C1268       C  0.55941387  0.33029262  0.64198881     0.20100
C1269       C  0.56099079  0.31425890  0.62170040    -0.13500
C1270       C  0.57017880  0.30063607  0.64006185    -0.11800
C1271       C  0.55012673  0.34429335  0.62237801     0.01000
C1272       C  0.54238573  0.35530616  0.60331025    -0.31800
C1273       C  0.58753833  0.28894763  0.69734843     0.02400
C1274       C  0.59601480  0.27731086  0.71204336    -0.33500
H1275       H  0.58220025  0.32093920  0.72921986     0.13500
H1276       H  0.56597704  0.34497211  0.69679461     0.13300
H1277       H  0.55517022  0.31231205  0.59159843     0.13100
H1278       H  0.57135475  0.28833681  0.62394724     0.12200
C1279       C  0.40392553  0.69991669  0.34780870     0.18500
C1280       C  0.39728937  0.68293601  0.34666740    -0.10600
C1281       C  0.40608085  0.66940553  0.36651409    -0.11500
C1282       C  0.42155150  0.67279237  0.38759170     0.20100
C1283       C  0.42819969  0.68976800  0.38868977    -0.13500
C1284       C  0.41940702  0.70329936  0.36884595    -0.11800
C1285       C  0.43042977  0.65897601  0.40884613     0.01000
C1286       C  0.43791591  0.64785279  0.42807761    -0.31800
C1287       C  0.39464759  0.71386775  0.32806754     0.02400
C1288       C  0.38622349  0.72524358  0.31216328    -0.33500
H1289       H  0.38529271  0.68018331  0.33063749     0.13500
H1290       H  0.40077960  0.65634805  0.36561078     0.13300
H1291       H  0.44011180  0.69254912  0.40504757     0.13100
H1292       H  0.42462267  0.71638656  0.37008018     0.12200
C1293       C  0.49883706  0.48448438  0.50845133     0.18500
C1294       C  0.48596879  0.48906336  0.47986555    -0.10600
C1295       C  0.47822788  0.50557110  0.48135744    -0.11500
C1296       C  0.48318116  0.51765775  0.51163620     0.20100
C1297       C  0.49614173  0.51312530  0.54002951    -0.13500
C1298       C  0.50388213  0.49661805  0.53853889    -0.11800
C1299       C  0.47579800  0.53502556  0.51205055     0.01000
C1300       C  0.47168314  0.55022853  0.50999374    -0.31800
C1301       C  0.50579418  0.46694319  0.50893180     0.02400
C1302       C  0.50946746  0.45166685  0.51224738    -0.33500
H1303       H  0.48178643  0.47980663  0.45666851     0.13500
H1304       H  0.46839595  0.50890474  0.45888522     0.13300
H1305       H  0.50027967  0.52236013  0.56332153     0.13100
H1306       H  0.51366885  0.49326302  0.56110693     0.12200
C1307       C  0.89872682  0.13683623  0.11657350     0.18500
C1308       C  0.88957414  0.14937981  0.09390655    -0.10600
C1309       C  0.87807825  0.16072835  0.11381393    -0.11500
C1310       C  0.87558115  0.15965029  0.15663527     0.20100
C1311       C  0.88439705  0.14681138  0.17918146    -0.13500
C1312       C  0.89591618  0.13545799  0.15925565    -0.11800
C1313       C  0.86535462  0.17269128  0.17789062     0.01000
C1314       C  0.85881302  0.18450624  0.19714841    -0.31800
C1315       C  0.91201436  0.12657350  0.09643838     0.02400
C1316       C  0.92396558  0.12011912  0.07767921    -0.33500
H1317       H  0.89171634  0.15074053  0.06098562     0.13500
H1318       H  0.87154217  0.17067424  0.09599689     0.13300
H1319       H  0.88277018  0.14591897  0.21235622     0.13100
H1320       H  0.90299228  0.12597103  0.17730108     0.12200
C1321       C  0.90579576  0.19979156  0.84304912     0.18500
C1322       C  0.91757797  0.20342603  0.87475813    -0.10600
C1323       C  0.92608713  0.18983237  0.89496315    -0.11500
C1324       C  0.92284708  0.17253940  0.88359981     0.20100
C1325       C  0.91115623  0.16888541  0.85167471    -0.13500
C1326       C  0.90263731  0.18249642  0.83144160    -0.11800
C1327       C  0.93126021  0.15863649  0.90549912     0.01000
C1328       C  0.93842672  0.14761982  0.92568738    -0.31800
C1329       C  0.89641693  0.21374795  0.82369980     0.02400
C1330       C  0.88772763  0.22516267  0.80886036    -0.33500
H1331       H  0.92003479  0.21673328  0.88414755     0.13500
H1332       H  0.93506419  0.19279335  0.91970472     0.13300
H1333       H  0.90851690  0.15555864  0.84273444     0.13100
H1334       H  0.89346431  0.17953703  0.80711366     0.12200
C1335       C  0.07726251  0.80236907  0.18097234     0.18500
C1336       C  0.07789296  0.80384001  0.13785034    -0.10600
C1337       C  0.06973268  0.81777421  0.11801264    -0.11500
C1338       C  0.06089021  0.83037053  0.14113053     0.20100
C1339       C  0.06037661  0.82900156  0.18430819    -0.13500
C1340       C  0.06855538  0.81504717  0.20417884    -0.11800
C1341       C  0.05197949  0.84435212  0.12030233     0.01000
C1342       C  0.04425962  0.85540268  0.10121254    -0.31800
C1343       C  0.08587208  0.78803655  0.20115847     0.02400
C1344       C  0.09398302  0.77628561  0.21660734    -0.33500
H1345       H  0.08466477  0.79419978  0.11956600     0.13500
H1346       H  0.07022580  0.81866416  0.08462772     0.13300
H1347       H  0.05358082  0.83863860  0.20254194     0.13100
H1348       H  0.06806005  0.81412787  0.23755485     0.12200
C1349       C  0.98155224  0.01790261  0.01542150     0.18500
C1350       C  0.98140379  0.00792180  0.97909769    -0.10600
C1351       C  0.98930644  0.99148517  0.97815627    -0.11500
C1352       C  0.99755295  0.98490140  0.01345317     0.20100
C1353       C  0.99751143  0.99479980  0.04989865    -0.13500
C1354       C  0.98961067  0.01122694  0.05084179    -0.11800
C1355       C  0.00515383  0.96763437  0.01316930     0.01000
C1356       C  0.00953907  0.95253559  0.01606409    -0.31800
C1357       C  0.97475022  0.03548761  0.01529773     0.02400
C1358       C  0.97122449  0.05080886  0.01257751    -0.33500
H1359       H  0.97536943  0.01293506  0.95135193     0.13500
H1360       H  0.98900884  0.98393570  0.94990102     0.13300
H1361       H  0.00361550  0.98982902  0.07759816     0.13100
H1362       H  0.98998051  0.01880735  0.07904774     0.12200
C1363       C  0.33967518  0.74027677  0.07610406     0.18500
C1364       C  0.32625152  0.75015138  0.05883619    -0.10600
C1365       C  0.32380289  0.75038577  0.01601394    -0.11500
C1366       C  0.33479037  0.74075636  0.99030975     0.20100
C1367       C  0.34813131  0.73079665  0.00761044    -0.13500
C1368       C  0.35058063  0.73056645  0.05039397    -0.11800
C1369       C  0.33272569  0.74125420  0.94615558     0.01000
C1370       C  0.33229035  0.74098419  0.90894896    -0.31800
C1371       C  0.34267409  0.74074805  0.11997127     0.02400
C1372       C  0.34520670  0.74251036  0.15647779    -0.33500
H1373       H  0.31780930  0.75780143  0.07843014     0.13500
H1374       H  0.31347744  0.75816520  0.00297067     0.13300
H1375       H  0.35673084  0.72333613  0.98798956     0.13100
H1376       H  0.36106393  0.72297980  0.06336118     0.12200
C1377       C  0.34099743  0.76188956  0.57649486     0.18500
C1378       C  0.34974337  0.77400358  0.55181024    -0.10600
C1379       C  0.34761862  0.77367945  0.50893102    -0.11500
C1380       C  0.33677221  0.76122786  0.49067660     0.20100
C1381       C  0.32796734  0.74918567  0.51538711    -0.13500
C1382       C  0.33008559  0.74951311  0.55822511    -0.11800
C1383       C  0.33501988  0.76061577  0.44655566     0.01000
C1384       C  0.33444170  0.76064523  0.40941625    -0.31800
C1385       C  0.34363721  0.76158024  0.62039350     0.02400
C1386       C  0.34569235  0.75958079  0.65693412    -0.33500
H1387       H  0.35829587  0.78355101  0.56563125     0.13500
H1388       H  0.35452970  0.78301282  0.49000883     0.13300
H1389       H  0.31960359  0.73947664  0.50154066     0.13100
H1390       H  0.32335662  0.74001928  0.57706947     0.12200
C1391       C  0.40426225  0.80148952  0.84572352     0.18500
C1392       C  0.41027854  0.79945363  0.88625173    -0.10600
C1393       C  0.41923118  0.81299718  0.90571817    -0.11500
C1394       C  0.42222895  0.82868942  0.88483085     0.20100
C1395       C  0.41629147  0.83072205  0.84420055    -0.13500
C1396       C  0.40732077  0.81715541  0.82470190    -0.11800
C1397       C  0.43121554  0.84266794  0.90549312     0.01000
C1398       C  0.43867538  0.85380866  0.92489476    -0.31800
C1399       C  0.39453705  0.78767938  0.82636004     0.02400
C1400       C  0.38580983  0.77624619  0.81143575    -0.33500
H1401       H  0.40794068  0.78745018  0.90289469     0.13500
H1402       H  0.42373011  0.81126844  0.93715044     0.13300
H1403       H  0.41850402  0.84279169  0.82773762     0.13100
H1404       H  0.40267361  0.81892163  0.79340885     0.12200
C1405       C  0.39847559  0.63656118  0.61590362     0.18500
C1406       C  0.39740339  0.63731899  0.65910115    -0.10600
C1407       C  0.38587411  0.64887427  0.67823853    -0.11500
C1408       C  0.37530404  0.65981576  0.65442838     0.20100
C1409       C  0.37606228  0.65875615  0.61121168    -0.13500
C1410       C  0.38758586  0.64717995  0.59206206    -0.11800
C1411       C  0.36497347  0.67310473  0.67449399     0.01000
C1412       C  0.35844101  0.68492308  0.69375581    -0.31800
C1413       C  0.41177612  0.62620941  0.59606489     0.02400
C1414       C  0.42378531  0.61963804  0.57774511    -0.33500
H1415       H  0.40583323  0.62936838  0.67798615     0.13500
H1416       H  0.38558615  0.64965094  0.71165587     0.13300
H1417       H  0.36813770  0.66722257  0.59234361     0.13100
H1418       H  0.38837741  0.64689853  0.55864722     0.12200
C1419       C  0.14399366  0.74119513  0.03644194     0.18500
C1420       C  0.14779395  0.75595092  0.01277599    -0.10600
C1421       C  0.14551707  0.75554884  0.96998691    -0.11500
C1422       C  0.13942538  0.74040087  0.95072411     0.20100
C1423       C  0.13569780  0.72560479  0.97435059    -0.13500
C1424       C  0.13798049  0.72600625  0.01718192    -0.11800
C1425       C  0.13663438  0.74036597  0.90687275     0.01000
C1426       C  0.13432521  0.74206631  0.87033445    -0.31800
C1427       C  0.14576881  0.74174288  0.08057098     0.02400
C1428       C  0.14636282  0.74158204  0.11771289    -0.33500
H1429       H  0.15236920  0.76777483  0.02740556     0.13500
H1430       H  0.14836652  0.76708322  0.95195673     0.13300
H1431       H  0.13091568  0.71385758  0.95975379     0.13100
H1432       H  0.13492909  0.71454966  0.03529937     0.12200
C1433       C  0.14412735  0.76015090  0.53643995     0.18500
C1434       C  0.12893025  0.76698732  0.51935702    -0.10600
C1435       C  0.12679660  0.76745871  0.47653409    -0.11500
C1436       C  0.13987683  0.76113844  0.45067525     0.20100
C1437       C  0.15517922  0.75451586  0.46773050    -0.13500
C1438       C  0.15731372  0.75404138  0.51058854    -0.11800
C1439       C  0.13719137  0.76047586  0.40683601     0.01000
C1440       C  0.13481834  0.75846793  0.37041821    -0.31800
C1441       C  0.14598375  0.75928252  0.58050065     0.02400
C1442       C  0.14646645  0.75924577  0.61764211    -0.33500
H1443       H  0.11866802  0.77176272  0.53914426     0.13500
H1444       H  0.11487616  0.77249612  0.46363258     0.13300
H1445       H  0.16532162  0.74949223  0.44794416     0.13100
H1446       H  0.16911516  0.74875194  0.52353643     0.12200
C1447       C  0.07528145  0.69898042  0.68358567     0.18500
C1448       C  0.05824800  0.70136347  0.66990133    -0.10600
C1449       C  0.04942167  0.68769081  0.65055313    -0.11500
C1450       C  0.05758967  0.67158344  0.64482473     0.20100
C1451       C  0.07456534  0.66917251  0.65882630    -0.13500
C1452       C  0.08338253  0.68283153  0.67816106    -0.11800
C1453       C  0.04882277  0.65777344  0.62317056     0.01000
C1454       C  0.04160546  0.64667678  0.60319667    -0.31800
C1455       C  0.08467553  0.71315821  0.70217269     0.02400
C1456       C  0.09335767  0.72465480  0.71683943    -0.33500
H1457       H  0.05187568  0.71380536  0.67380355     0.13500
H1458       H  0.03632293  0.68973235  0.63966092     0.13300
H1459       H  0.08103934  0.65681595  0.65438515     0.13100
H1460       H  0.09657128  0.68085833  0.68849604     0.12200
C1461       C  0.10353497  0.84140167  0.86904134     0.18500
C1462       C  0.09056945  0.84986300  0.84631664    -0.10600
C1463       C  0.07914758  0.86141090  0.86581419    -0.11500
C1464       C  0.08056749  0.86465779  0.90829735     0.20100
C1465       C  0.09372010  0.85642833  0.93094004    -0.13500
C1466       C  0.10514956  0.84485309  0.91142218    -0.11800
C1467       C  0.06767705  0.87515019  0.92924895     0.01000
C1468       C  0.05606919  0.88195640  0.94854116    -0.31800
C1469       C  0.11417977  0.82830201  0.84918934     0.02400
C1470       C  0.12097702  0.81654765  0.83022260    -0.33500
H1471       H  0.08901631  0.84720770  0.81365079     0.13500
H1472       H  0.06894962  0.86746495  0.84795430     0.13300
H1473       H  0.09486796  0.85861831  0.96389079     0.13100
H1474       H  0.11495576  0.83830427  0.92954062     0.12200
C1475       C  0.25605317  0.74191423  0.76104982     0.18500
C1476       C  0.24807057  0.74763909  0.72458818    -0.10600
C1477       C  0.23167209  0.75547244  0.72595725    -0.11500
C1478       C  0.22309958  0.75777980  0.76381589     0.20100
C1479       C  0.23103646  0.75196084  0.80024025    -0.13500
C1480       C  0.24743050  0.74412647  0.79887165    -0.11800
C1481       C  0.20578781  0.76511590  0.76480079     0.01000
C1482       C  0.19065664  0.76922041  0.76280287    -0.31800
C1483       C  0.27352312  0.73495389  0.76024455     0.02400
C1484       C  0.28874064  0.73120248  0.76257062    -0.33500
H1485       H  0.25457472  0.74618649  0.69515102     0.13500
H1486       H  0.22566280  0.75970314  0.69745217     0.13300
H1487       H  0.22454816  0.75344644  0.82968845     0.13100
H1488       H  0.25345052  0.73992810  0.82738997     0.12200
C1489       C  0.56958104  0.31959064  0.13360072     0.18500
C1490       C  0.55687094  0.30953698  0.11391303    -0.10600
C1491       C  0.54305893  0.31763408  0.09360351    -0.11500
C1492       C  0.54189494  0.33583006  0.09291507     0.20100
C1493       C  0.55469528  0.34587335  0.11227930    -0.13500
C1494       C  0.56849175  0.33778402  0.13257611    -0.11800
C1495       C  0.52749802  0.34431534  0.07307457     0.01000
C1496       C  0.51589881  0.35260197  0.05775861    -0.31800
C1497       C  0.58335758  0.31124147  0.15608666     0.02400
C1498       C  0.59434633  0.30405447  0.17630849    -0.33500
H1499       H  0.55754415  0.29545412  0.11463374     0.13500
H1500       H  0.53324279  0.30973163  0.07879250     0.13300
H1501       H  0.55392561  0.35995572  0.11199055     0.13100
H1502       H  0.57819181  0.34569517  0.14780079     0.12200
C1503       C  0.48045299  0.39920378  0.32679542     0.18500
C1504       C  0.46577103  0.39513850  0.30334615    -0.10600
C1505       C  0.46605924  0.39731311  0.26045811    -0.11500
C1506       C  0.48102490  0.40355257  0.24092786     0.20100
C1507       C  0.49562794  0.40779548  0.26444512    -0.13500
C1508       C  0.49533869  0.40562710  0.30729233    -0.11800
C1509       C  0.48155690  0.40499442  0.19668242     0.01000
C1510       C  0.48145947  0.40531936  0.15949217    -0.31800
C1511       C  0.48056609  0.39640908  0.37069331     0.02400
C1512       C  0.48223679  0.39418857  0.40729897    -0.33500
H1513       H  0.45421194  0.39013118  0.31811672     0.13500
H1514       H  0.45471102  0.39394281  0.24249603     0.13300
H1515       H  0.50727503  0.41257418  0.24963890     0.13100
H1516       H  0.50677512  0.40877442  0.32516633     0.12200
C1517       C  0.49930450  0.40657963  0.74091103     0.18500
C1518       C  0.49611411  0.42051066  0.76774829    -0.10600
C1519       C  0.49733059  0.41805701  0.81046400    -0.11500
C1520       C  0.50179058  0.40169380  0.82635499     0.20100
C1521       C  0.50518481  0.38785022  0.79945891    -0.13500
C1522       C  0.50396719  0.39029748  0.75683122    -0.11800
C1523       C  0.50159946  0.39873803  0.87014797     0.01000
C1524       C  0.49965499  0.39594448  0.90643121    -0.31800
C1525       C  0.49798392  0.40879907  0.69698741     0.02400
C1526       C  0.49793570  0.40911603  0.65982407    -0.33500
H1527       H  0.49255412  0.43316524  0.75571094     0.13500
H1528       H  0.49453339  0.42880597  0.83106977     0.13300
H1529       H  0.50849212  0.37511561  0.81144646     0.13100
H1530       H  0.50651293  0.37946105  0.73628787     0.12200
C1531       C  0.42224269  0.32741615  0.13624332     0.18500
C1532       C  0.42929001  0.31060117  0.13576957    -0.10600
C1533       C  0.42090601  0.29697349  0.15644734    -0.11500
C1534       C  0.40542047  0.30007375  0.17774634     0.20100
C1535       C  0.39840897  0.31689932  0.17831760    -0.13500
C1536       C  0.40678718  0.33051919  0.15764575    -0.11800
C1537       C  0.39642013  0.28598604  0.19803564     0.01000
C1538       C  0.38793453  0.27464679  0.21415497    -0.31800
C1539       C  0.43072568  0.34137900  0.11426705     0.02400
C1540       C  0.43791728  0.35271821  0.09489223    -0.33500
H1541       H  0.44120185  0.30801081  0.11924251     0.13500
H1542       H  0.42642686  0.28402329  0.15559090     0.13300
H1543       H  0.38640743  0.31946089  0.19449986     0.13100
H1544       H  0.40116983  0.34343087  0.15816616     0.12200
C1545       C  0.41034980  0.68027963  0.88768454     0.18500
C1546       C  0.42754560  0.68445415  0.87801366    -0.10600
C1547       C  0.44119541  0.67589534  0.89787221    -0.11500
C1548       C  0.43776058  0.66309058  0.92759688     0.20100
C1549       C  0.42055779  0.65892927  0.93735319    -0.13500
C1550       C  0.40689414  0.66749643  0.91747306    -0.11800
C1551       C  0.45185282  0.65397355  0.94735995     0.01000
C1552       C  0.46345608  0.64579846  0.96316123    -0.31800
C1553       C  0.39636694  0.68900312  0.86656893     0.02400
C1554       C  0.38530201  0.69658296  0.84730747    -0.33500
H1555       H  0.43040308  0.69427774  0.85497855     0.13500
H1556       H  0.45440920  0.67919663  0.88990399     0.13300
H1557       H  0.41771129  0.64900816  0.96015598     0.13100
H1558       H  0.39367489  0.66410904  0.92518160     0.12200
C1559       C  0.49998802  0.60119437  0.70129686     0.18500
C1560       C  0.51047779  0.61148633  0.72670936    -0.10600
C1561       C  0.51020779  0.60901670  0.76942512    -0.11500
C1562       C  0.49942902  0.59628213  0.78672124     0.20100
C1563       C  0.48898420  0.58595946  0.76130184    -0.13500
C1564       C  0.48925822  0.58842510  0.71859466    -0.11800
C1565       C  0.49891731  0.59412160  0.83062742     0.01000
C1566       C  0.49914924  0.59349847  0.86768543    -0.31800
C1567       C  0.49961762  0.60412943  0.65763000     0.02400
C1568       C  0.49778337  0.60648450  0.62122015    -0.33500
H1569       H  0.51871178  0.62147803  0.71357125     0.13500
H1570       H  0.51827991  0.61709978  0.78896852     0.13300
H1571       H  0.48056878  0.57613380  0.77448570     0.13100
H1572       H  0.48100765  0.58050393  0.69910807     0.12200
C1573       C  0.48223597  0.60188431  0.20077601     0.18500
C1574       C  0.49773842  0.59692170  0.21989080    -0.10600
C1575       C  0.49841209  0.59490113  0.26275412    -0.11500
C1576       C  0.48357462  0.59783732  0.28654504     0.20100
C1577       C  0.46808508  0.60279855  0.26742085    -0.13500
C1578       C  0.46741223  0.60482008  0.22458089    -0.11800
C1579       C  0.48418939  0.59616551  0.33065080     0.01000
C1580       C  0.48358056  0.59566182  0.36774873    -0.31800
C1581       C  0.48172743  0.60423188  0.15682805     0.02400
C1582       C  0.48274505  0.60628048  0.12007820    -0.33500
H1583       H  0.50929476  0.59469753  0.20168646     0.13500
H1584       H  0.51046638  0.59114520  0.27730829     0.13300
H1585       H  0.45656769  0.60517968  0.28565029     0.13100
H1586       H  0.45539672  0.60873201  0.21008093     0.12200
C1587       C  0.57652441  0.70033051  0.84910551     0.18500
C1588       C  0.56473863  0.70372719  0.88099800    -0.10600
C1589       C  0.55601741  0.68999435  0.90037946    -0.11500
C1590       C  0.55901893  0.67276810  0.88802432     0.20100
C1591       C  0.57075862  0.66936578  0.85602728    -0.13500
C1592       C  0.57948492  0.68310719  0.83663313    -0.11800
C1593       C  0.55021429  0.65866049  0.90866857     0.01000
C1594       C  0.54270303  0.64741402  0.92762240    -0.31800
C1595       C  0.58598417  0.71442991  0.83013881     0.02400
C1596       C  0.59460089  0.72595194  0.81521462    -0.33500
H1597       H  0.56239483  0.71696013  0.89107916     0.13500
H1598       H  0.54701105  0.69279989  0.92515425     0.13300
H1599       H  0.57323347  0.65611649  0.84625788     0.13100
H1600       H  0.58862935  0.68029575  0.81215489     0.12200
C1601       C  0.48405728  0.48333709  0.01068007     0.18500
C1602       C  0.48211740  0.49395186  0.04565356    -0.10600
C1603       C  0.48984509  0.51048208  0.04714811    -0.11500
C1604       C  0.49971562  0.51659942  0.01377965     0.20100
C1605       C  0.50169311  0.50597978  0.97877798    -0.13500
C1606       C  0.49396368  0.48942347  0.97729126    -0.11800
C1607       C  0.50666684  0.53419222  0.01426886     0.01000
C1608       C  0.51030189  0.54954661  0.01228913    -0.31800
C1609       C  0.47683458  0.46585420  0.01040578     0.02400
C1610       C  0.47260818  0.45068829  0.01356358    -0.33500
H1611       H  0.47467365  0.48942003  0.07189805     0.13500
H1612       H  0.48800936  0.51854540  0.07424193     0.13300
H1613       H  0.50910780  0.51054114  0.95251452     0.13100
H1614       H  0.49576594  0.48135908  0.95018530     0.12200
C1615       C  0.64564317  0.76139873  0.99606463     0.18500
C1616       C  0.65919682  0.75603762  0.02179024    -0.10600
C1617       C  0.65703622  0.75615663  0.06469738    -0.11500
C1618       C  0.64133904  0.76167061  0.08198735     0.20100
C1619       C  0.62785825  0.76718298  0.05625235    -0.13500
C1620       C  0.63001719  0.76706751  0.01339440    -0.11800
C1621       C  0.63875330  0.76076199  0.12592096     0.01000
C1622       C  0.63646407  0.75860743  0.16237205    -0.31800
C1623       C  0.64754673  0.76098927  0.95188743     0.02400
C1624       C  0.64788909  0.76124345  0.91468748    -0.33500
H1625       H  0.67133049  0.75163270  0.00870948     0.13500
H1626       H  0.66750094  0.75175156  0.08434054     0.13300
H1627       H  0.61563018  0.77135363  0.06927523     0.13100
H1628       H  0.61945577  0.77124277  0.99375611     0.12200
C1629       C  0.64558360  0.73926046  0.49636880     0.18500
C1630       C  0.65632723  0.74953797  0.52122972    -0.10600
C1631       C  0.65425210  0.74941499  0.56411349    -0.11500
C1632       C  0.64144211  0.73900485  0.58228096     0.20100
C1633       C  0.63087217  0.72851343  0.55746832    -0.13500
C1634       C  0.63295356  0.72863015  0.51456708    -0.11800
C1635       C  0.63853468  0.73997676  0.62606180     0.01000
C1636       C  0.63605499  0.74244712  0.66231174    -0.31800
C1637       C  0.64714616  0.73992642  0.45216880     0.02400
C1638       C  0.64755339  0.74000064  0.41499009    -0.33500
H1639       H  0.66611215  0.75781235  0.50745477     0.13500
H1640       H  0.66242047  0.75765742  0.58303969     0.13300
H1641       H  0.62086066  0.72050150  0.57119174     0.13100
H1642       H  0.62456504  0.72064490  0.49556693     0.12200
C1643       C  0.56149094  0.83149839  0.38510969     0.18500
C1644       C  0.57707946  0.82542864  0.40185143    -0.10600
C1645       C  0.58574740  0.81145093  0.38344732    -0.11500
C1646       C  0.57888431  0.80341343  0.34818858     0.20100
C1647       C  0.56342714  0.80964496  0.33104023    -0.13500
C1648       C  0.55474463  0.82364061  0.34947572    -0.11800
C1649       C  0.58772175  0.78876341  0.32993148     0.01000
C1650       C  0.59586747  0.77678175  0.31561104    -0.31800
C1651       C  0.55209326  0.84519975  0.40573984     0.02400
C1652       C  0.54422712  0.85597646  0.42535523    -0.33500
H1653       H  0.58240898  0.83134676  0.42943977     0.13500
H1654       H  0.59771157  0.80680486  0.39693960     0.13300
H1655       H  0.55801487  0.80359082  0.30371857     0.13100
H1656       H  0.54268092  0.82817458  0.33628812     0.12200
C1657       C  0.60428927  0.66001317  0.15918800     0.18500
C1658       C  0.59449947  0.64802821  0.18213484    -0.10600
C1659       C  0.58270148  0.63691991  0.16234703    -0.11500
C1660       C  0.58057561  0.63767542  0.11937312     0.20100
C1661       C  0.59064947  0.64938491  0.09631654    -0.13500
C1662       C  0.60243634  0.66050393  0.11610841    -0.11800
C1663       C  0.56720136  0.62752224  0.09918392     0.01000
C1664       C  0.55534644  0.62091211  0.08034404    -0.31800
C1665       C  0.61489407  0.67281307  0.18027163     0.02400
C1666       C  0.62166188  0.68437988  0.19996675    -0.33500
H1667       H  0.59561983  0.64761423  0.21548233     0.13500
H1668       H  0.57492338  0.62808618  0.18066263     0.13300
H1669       H  0.58905384  0.65025527  0.06312710     0.13100
H1670       H  0.60972985  0.66980319  0.09795317     0.12200
C1671       C  0.54244695  0.66506623  0.43607584     0.18500
C1672       C  0.55708072  0.65556608  0.42404831    -0.10600
C1673       C  0.57087270  0.66394010  0.40432659    -0.11500
C1674       C  0.57009165  0.68185675  0.39655553     0.20100
C1675       C  0.55555300  0.69139462  0.40904157    -0.13500
C1676       C  0.54175605  0.68301782  0.42876195    -0.11800
C1677       C  0.58383869  0.69031800  0.37424298     0.01000
C1678       C  0.59482196  0.69747241  0.35394245    -0.31800
C1679       C  0.52801119  0.65625765  0.45488001     0.02400
C1680       C  0.51624422  0.64800251  0.46954296    -0.33500
H1681       H  0.55773643  0.64166435  0.42948160     0.13500
H1682       H  0.58201432  0.65642745  0.39466931     0.13300
H1683       H  0.55478737  0.70524717  0.40303939     0.13100
H1684       H  0.53049797  0.69047817  0.43785091     0.12200
C1685       C  0.92277388  0.67312495  0.14237996     0.18500
C1686       C  0.90588017  0.67725283  0.13010742    -0.10600
C1687       C  0.89703628  0.69101885  0.14893958    -0.11500
C1688       C  0.90502150  0.70078996  0.18016574     0.20100
C1689       C  0.92196595  0.69674587  0.19228271    -0.13500
C1690       C  0.93082379  0.68296069  0.17341806    -0.11800
C1691       C  0.89567249  0.71474688  0.20000655     0.01000
C1692       C  0.88708462  0.72604318  0.21593574    -0.31800
C1693       C  0.93187223  0.65904381  0.12241373     0.02400
C1694       C  0.93921154  0.64768725  0.10348240    -0.33500
H1695       H  0.89954669  0.66982987  0.10599004     0.13500
H1696       H  0.88395482  0.69400761  0.13924287     0.13300
H1697       H  0.92829478  0.70419862  0.21634563     0.13100
H1698       H  0.94391642  0.67997631  0.18302094     0.12200
C1699       C  0.83412516  0.74202529  0.53695322     0.18500
C1700       C  0.82407420  0.75284515  0.51175046    -0.10600
C1701       C  0.82652575  0.75273159  0.46892139    -0.11500
C1702       C  0.83901924  0.74179358  0.45124606     0.20100
C1703       C  0.84887382  0.73082165  0.47643460    -0.13500
C1704       C  0.84642482  0.73093198  0.51917635    -0.11800
C1705       C  0.84229352  0.74241123  0.40756193     0.01000
C1706       C  0.84524030  0.74402211  0.37122994    -0.31800
C1707       C  0.83232423  0.74251552  0.58112691     0.02400
C1708       C  0.83221119  0.74207889  0.61831168    -0.33500
H1709       H  0.81454721  0.76149044  0.52520127     0.13500
H1710       H  0.81888325  0.76132811  0.44968704     0.13300
H1711       H  0.85860984  0.72238005  0.46310645     0.13100
H1712       H  0.85428072  0.72253639  0.53842322     0.12200
C1713       C  0.84096083  0.76234680  0.95093230     0.18500
C1714       C  0.82711196  0.75315193  0.96840697    -0.10600
C1715       C  0.82516306  0.75250490  0.01127517    -0.11500
C1716       C  0.83708022  0.76103100  0.03678474     0.20100
C1717       C  0.85087042  0.77033633  0.01932481    -0.13500
C1718       C  0.85282490  0.77097693  0.97643091    -0.11800
C1719       C  0.83528835  0.76019257  0.08086829     0.01000
C1720       C  0.83461070  0.76019109  0.11799394    -0.31800
C1721       C  0.84345507  0.76200105  0.90700279     0.02400
C1722       C  0.84547506  0.75991098  0.87048766    -0.33500
H1723       H  0.81795789  0.74631514  0.94891257     0.13500
H1724       H  0.81447306  0.74526867  0.02450413     0.13300
H1725       H  0.86016199  0.77696351  0.03886006     0.13100
H1726       H  0.86365871  0.77799764  0.96321014     0.12200
C1727       C  0.93838220  0.83902373  0.10022275     0.18500
C1728       C  0.92135664  0.84170092  0.08662897    -0.10600
C1729       C  0.90757291  0.83317084  0.10618280    -0.11500
C1730       C  0.91076585  0.82194207  0.13944049     0.20100
C1731       C  0.92777607  0.81934060  0.15306701    -0.13500
C1732       C  0.94153225  0.82785201  0.13354914    -0.11800
C1733       C  0.89672177  0.81308742  0.15992236     0.01000
C1734       C  0.88573599  0.80532364  0.17900390    -0.31800
C1735       C  0.95259604  0.84797608  0.08065917     0.02400
C1736       C  0.96436172  0.85604094  0.06528496    -0.33500
H1737       H  0.91874435  0.85039191  0.06102666     0.13500
H1738       H  0.89447883  0.83533311  0.09544194     0.13300
H1739       H  0.93040408  0.81073640  0.17882692     0.13100
H1740       H  0.95460759  0.82575314  0.14449241     0.12200
C1741       C  0.75782786  0.75674719  0.27016159     0.18500
C1742       C  0.75363254  0.74373601  0.24134716    -0.10600
C1743       C  0.73716251  0.73602504  0.24134154    -0.11500
C1744       C  0.72468756  0.74119661  0.27025770     0.20100
C1745       C  0.72892910  0.75409189  0.29936378    -0.13500
C1746       C  0.74541115  0.76181233  0.29936266    -0.11800
C1747       C  0.70732834  0.73394340  0.26928021     0.01000
C1748       C  0.69212469  0.73005100  0.27081975    -0.31800
C1749       C  0.77495123  0.76455577  0.26960164     0.02400
C1750       C  0.78992250  0.76903225  0.26572731    -0.33500
H1751       H  0.76309163  0.73959866  0.21869439     0.13500
H1752       H  0.73412352  0.72615313  0.21857211     0.13300
H1753       H  0.71942989  0.75829592  0.32185200     0.13100
H1754       H  0.74842499  0.77176185  0.32196168     0.12200
C1755       C  0.33778290  0.26020253  0.53606471     0.18500
C1756       C  0.34638436  0.27423561  0.51744871    -0.10600
C1757       C  0.34845231  0.27472196  0.47453756    -0.11500
C1758       C  0.34190503  0.26117533  0.45015326     0.20100
C1759       C  0.33320929  0.24721624  0.46877649    -0.13500
C1760       C  0.33114911  0.24672750  0.51163845    -0.11800
C1761       C  0.34457156  0.26110167  0.40621186     0.01000
C1762       C  0.34672460  0.25921198  0.36964076    -0.31800
C1763       C  0.33610755  0.25950262  0.58025170     0.02400
C1764       C  0.33545182  0.25951439  0.61741912    -0.33500
H1765       H  0.35160707  0.28470172  0.53611970     0.13500
H1766       H  0.35527286  0.28552767  0.46046654     0.13300
H1767       H  0.32817791  0.23662993  0.45018544     0.13100
H1768       H  0.32452707  0.23580100  0.52572626     0.12200
C1769       C  0.33705762  0.23933678  0.03605475     0.18500
C1770       C  0.32238712  0.23784322  0.01091313    -0.10600
C1771       C  0.32424505  0.23679505  0.96803455    -0.11500
C1772       C  0.34077787  0.23716608  0.95030600     0.20100
C1773       C  0.35544603  0.23834115  0.97552977    -0.13500
C1774       C  0.35359019  0.23939549  0.01834883    -0.11800
C1775       C  0.34271051  0.23782780  0.90626877     0.01000
C1776       C  0.34479592  0.24032837  0.86993983    -0.31800
C1777       C  0.33525964  0.24071952  0.08003385     0.02400
C1778       C  0.33465525  0.24114370  0.11713738    -0.33500
H1779       H  0.30955507  0.23770214  0.02439219     0.13500
H1780       H  0.31282225  0.23603526  0.94871684     0.13300
H1781       H  0.36827541  0.23878480  0.96205660     0.13100
H1782       H  0.36501281  0.24046217  0.03759620     0.12200
C1783       C  0.42166110  0.17231542  0.64452817     0.18500
C1784       C  0.40401393  0.17537118  0.63820783    -0.10600
C1785       C  0.39579049  0.18899556  0.65884903    -0.11500
C1786       C  0.40517026  0.19965437  0.68587993     0.20100
C1787       C  0.42281774  0.19655472  0.69249829    -0.13500
C1788       C  0.43106674  0.18288754  0.67179233    -0.11800
C1789       C  0.39653397  0.21384903  0.70607259     0.01000
C1790       C  0.38790742  0.22530987  0.72083910    -0.31800
C1791       C  0.43010285  0.15865851  0.62193577     0.02400
C1792       C  0.43685073  0.14757285  0.60119309    -0.33500
H1793       H  0.39665306  0.16731625  0.61707411     0.13500
H1794       H  0.38214303  0.19130343  0.65350387     0.13300
H1795       H  0.43018297  0.20474165  0.71332574     0.13100
H1796       H  0.44475011  0.18065633  0.67674857     0.12200
C1797       C  0.39913556  0.36465194  0.90809439     0.18500
C1798       C  0.39643437  0.36511579  0.86527699    -0.10600
C1799       C  0.38465664  0.35361060  0.84670506    -0.11500
C1800       C  0.37546085  0.34152455  0.87074528     0.20100
C1801       C  0.37785417  0.34135547  0.91367486    -0.13500
C1802       C  0.38961447  0.35286546  0.93224202    -0.11800
C1803       C  0.36492858  0.32831245  0.85092363     0.01000
C1804       C  0.35819775  0.31641905  0.83228466    -0.31800
C1805       C  0.41265477  0.37505873  0.92698703     0.02400
C1806       C  0.42471913  0.38166707  0.94506969    -0.33500
H1807       H  0.40378845  0.37400402  0.84611203     0.13500
H1808       H  0.38311312  0.35378722  0.81345513     0.13300
H1809       H  0.37102129  0.33198932  0.93265924     0.13100
H1810       H  0.39166240  0.35221221  0.96530444     0.12200
C1811       C  0.43842355  0.33771103  0.60058516     0.18500
C1812       C  0.42873030  0.34633661  0.63091628    -0.10600
C1813       C  0.41521113  0.33771552  0.65115237    -0.11500
C1814       C  0.41128166  0.32041102  0.64115792     0.20100
C1815       C  0.42090806  0.31180265  0.61067005    -0.13500
C1816       C  0.43444041  0.32043161  0.59041594    -0.11800
C1817       C  0.39768249  0.31139543  0.66292263     0.01000
C1818       C  0.38667706  0.30380726  0.68233649    -0.31800
C1819       C  0.45244588  0.34664494  0.58017361     0.02400
C1820       C  0.46393079  0.35490331  0.56415836    -0.33500
H1821       H  0.43167425  0.35969880  0.63904455     0.13500
H1822       H  0.40790350  0.34449624  0.67473138     0.13300
H1823       H  0.41802360  0.29840692  0.60274956     0.13100
H1824       H  0.44182479  0.31362616  0.56702167     0.12200
C1825       C  0.14248872  0.23963105  0.08012195     0.18500
C1826       C  0.15304850  0.25215781  0.06123756    -0.10600
C1827       C  0.15506357  0.25222549  0.01833461    -0.11500
C1828       C  0.14651802  0.23976282  0.99424296     0.20100
C1829       C  0.13617258  0.22707964  0.01319290    -0.13500
C1830       C  0.13415362  0.22701598  0.05607768    -0.11800
C1831       C  0.14780814  0.24026143  0.95001663     0.01000
C1832       C  0.14779099  0.24010044  0.91284698    -0.31800
C1833       C  0.13945143  0.24040403  0.12382902     0.02400
C1834       C  0.13659494  0.24250445  0.16002346    -0.33500
H1835       H  0.15946401  0.26203611  0.07959664     0.13500
H1836       H  0.16304521  0.26211440  0.00394388     0.13300
H1837       H  0.12946851  0.21741914  0.99476887     0.13100
H1838       H  0.12588103  0.21734830  0.07038067     0.12200
C1839       C  0.14255187  0.25943288  0.49489983     0.18500
C1840       C  0.15103150  0.24722721  0.51977697    -0.10600
C1841       C  0.14898438  0.24776377  0.56265391    -0.11500
C1842       C  0.13847172  0.26051221  0.58076924     0.20100
C1843       C  0.13001345  0.27273239  0.55589729    -0.13500
C1844       C  0.13206271  0.27219785  0.51302110    -0.11800
C1845       C  0.13594532  0.26056598  0.62472409     0.01000
C1846       C  0.13385728  0.25898785  0.66137591    -0.31800
C1847       C  0.14438955  0.25883855  0.45076706     0.02400
C1848       C  0.14506771  0.25916346  0.41362561    -0.33500
H1849       H  0.15912655  0.23727944  0.50605191     0.13500
H1850       H  0.15548725  0.23817958  0.58164938     0.13300
H1851       H  0.12176831  0.28256265  0.56958968     0.13100
H1852       H  0.12541068  0.28166572  0.49399325     0.12200
C1853       C  0.05769510  0.32733337  0.89062546     0.18500
C1854       C  0.07410188  0.33001449  0.87335656    -0.10600
C1855       C  0.08284880  0.31622938  0.85440569    -0.11500
C1856       C  0.07525689  0.29967279  0.85260245     0.20100
C1857       C  0.05881230  0.29698416  0.86973199    -0.13500
C1858       C  0.05005322  0.31078781  0.88870416    -0.11800
C1859       C  0.08455147  0.28549325  0.83373189     0.01000
C1860       C  0.09325465  0.27422051  0.81820218    -0.31800
C1861       C  0.04895578  0.34141034  0.91136167     0.02400
C1862       C  0.04176358  0.35283630  0.93030733    -0.33500
H1863       H  0.08017601  0.34271115  0.87481032     0.13500
H1864       H  0.09557844  0.31845495  0.84137620     0.13300
H1865       H  0.05282955  0.28423761  0.86863941     0.13100
H1866       H  0.03740017  0.30853579  0.90212207     0.12200
C1867       C  0.04182671  0.16667018  0.93616000     0.18500
C1868       C  0.03891611  0.17657261  0.90054018    -0.10600
C1869       C  0.05281742  0.18431451  0.87991978    -0.11500
C1870       C  0.06970619  0.18218123  0.89475961     0.20100
C1871       C  0.07262088  0.17251811  0.93079016    -0.13500
C1872       C  0.05869329  0.16475995  0.95144780    -0.11800
C1873       C  0.08394499  0.18969298  0.87234897     0.01000
C1874       C  0.09509154  0.19638419  0.85170474    -0.31800
C1875       C  0.02765140  0.15759737  0.95534723     0.02400
C1876       C  0.01603246  0.14896551  0.96943712    -0.33500
H1877       H  0.02595411  0.17804898  0.88832016     0.13500
H1878       H  0.05042413  0.19176907  0.85209054     0.13300
H1879       H  0.08562828  0.17079715  0.94254073     0.13100
H1880       H  0.06109910  0.15704007  0.97885576     0.12200
C1881       C  0.22397518  0.24180005  0.76647397     0.18500
C1882       C  0.23466715  0.24024832  0.73169387    -0.10600
C1883       C  0.25129123  0.24760495  0.73175278    -0.11500
C1884       C  0.25739943  0.25666442  0.76650609     0.20100
C1885       C  0.24677615  0.25807451  0.80146590    -0.13500
C1886       C  0.23014081  0.25071197  0.80140809    -0.11800
C1887       C  0.27473524  0.26394863  0.76630136     0.01000
C1888       C  0.28980122  0.26815450  0.76305549    -0.31800
C1889       C  0.20639970  0.23513481  0.76579840     0.02400
C1890       C  0.19114562  0.23150360  0.76756523    -0.33500
H1891       H  0.23010672  0.23349746  0.70440232     0.13500
H1892       H  0.25937583  0.24626728  0.70460363     0.13300
H1893       H  0.25131605  0.26489336  0.82868194     0.13100
H1894       H  0.22202191  0.25211045  0.82848217     0.12200
C1895       C  0.06860085  0.81765399  0.63504898     0.18500
C1896       C  0.06877057  0.81993159  0.59206417    -0.10600
C1897       C  0.05490344  0.82826897  0.57239552    -0.11500
C1898       C  0.04080918  0.83431668  0.59563168     0.20100
C1899       C  0.04063408  0.83191645  0.63850937    -0.13500
C1900       C  0.05445977  0.82361132  0.65811762    -0.11800
C1901       C  0.02682081  0.84360422  0.57607338     0.01000
C1902       C  0.01535403  0.85233814  0.56155434    -0.31800
C1903       C  0.08284142  0.80933282  0.65596296     0.02400
C1904       C  0.09403305  0.80244611  0.67618279    -0.33500
H1905       H  0.07962697  0.81537931  0.57386914     0.13500
H1906       H  0.05523685  0.83012824  0.53923544     0.13300
H1907       H  0.02987558  0.83660742  0.65684179     0.13100
H1908       H  0.05417180  0.82193043  0.69133816     0.12200
C1909       C  0.98042693  0.90156678  0.82972578     0.18500
C1910       C  0.97024665  0.89080640  0.80465081    -0.10600
C1911       C  0.97060077  0.89281858  0.76175331    -0.11500
C1912       C  0.98116178  0.90556549  0.74373370     0.20100
C1913       C  0.99118302  0.91648411  0.76881074    -0.13500
C1914       C  0.99082301  0.91447481  0.81174816    -0.11800
C1915       C  0.98191977  0.90702271  0.69949655     0.01000
C1916       C  0.98175008  0.90701336  0.66229329    -0.31800
C1917       C  0.98090756  0.89884461  0.87366460     0.02400
C1918       C  0.98270254  0.89646260  0.91019836    -0.33500
H1919       H  0.96223988  0.88072720  0.81819678     0.13500
H1920       H  0.96281404  0.88429710  0.74260527     0.13300
H1921       H  0.99940506  0.92636809  0.75519104     0.13100
H1922       H  0.99882007  0.92280404  0.83087297     0.12200
C1923       C  0.00138068  0.90576913  0.24424800     0.18500
C1924       C  0.01329066  0.89410406  0.26152466    -0.10600
C1925       C  0.01370140  0.89148907  0.30425582    -0.11500
C1926       C  0.00221425  0.90056195  0.32983153     0.20100
C1927       C  0.99050517  0.91243583  0.31260419    -0.13500
C1928       C  0.99008623  0.91504072  0.26988946    -0.11800
C1929       C  0.00168537  0.89711866  0.37344889     0.01000
C1930       C  0.99947068  0.89443866  0.40971672    -0.31800
C1931       C  0.00045902  0.90771986  0.20014760     0.02400
C1932       C  0.00035681  0.90820274  0.16296597    -0.33500
H1933       H  0.02206379  0.88684778  0.24191351     0.13500
H1934       H  0.02274520  0.88221806  0.31723594     0.13300
H1935       H  0.98150932  0.91945247  0.33213072     0.13100
H1936       H  0.98081267  0.92406262  0.25684612     0.12200
C1937       C  0.89964553  0.86611017  0.40703327     0.18500
C1938       C  0.90085589  0.86306335  0.36441946    -0.10600
C1939       C  0.88930966  0.85159515  0.34497049    -0.11500
C1940       C  0.87644570  0.84303400  0.36791115     0.20100
C1941       C  0.87497290  0.84639802  0.41033750    -0.13500
C1942       C  0.88651338  0.85788253  0.42978570    -0.11800
C1943       C  0.86584596  0.82979452  0.34842759     0.01000
C1944       C  0.85904243  0.81783968  0.33017737    -0.31800
C1945       C  0.91282402  0.87618622  0.42812792     0.02400
C1946       C  0.92462818  0.88244099  0.44780104    -0.33500
H1947       H  0.91103484  0.86913021  0.34646825     0.13500
H1948       H  0.89074082  0.84901374  0.31223967     0.13300
H1949       H  0.86523981  0.83977844  0.42858858     0.13100
H1950       H  0.88552527  0.85992669  0.46281775     0.12200
C1951       C  0.90413778  0.80138113  0.68159164     0.18500
C1952       C  0.90093920  0.81864381  0.69337301    -0.10600
C1953       C  0.90951619  0.83234542  0.67349408    -0.11500
C1954       C  0.92132253  0.82884271  0.64170685     0.20100
C1955       C  0.92459817  0.81157642  0.63014284    -0.13500
C1956       C  0.91602690  0.79788637  0.65000231    -0.11800
C1957       C  0.92984361  0.84287911  0.62025957     0.01000
C1958       C  0.93713734  0.85403198  0.60059362    -0.31800
C1959       C  0.89479386  0.78732809  0.70091181     0.02400
C1960       C  0.88621912  0.77587842  0.71617567    -0.33500
H1961       H  0.89170933  0.82151164  0.71763267     0.13500
H1962       H  0.90684426  0.84563433  0.68264451     0.13300
H1963       H  0.93366834  0.80870845  0.60554118     0.13100
H1964       H  0.91854685  0.78461200  0.64048772     0.12200
C1965       C  0.93807465  0.16348444  0.43022358     0.18500
C1966       C  0.94110983  0.17968335  0.41170713    -0.10600
C1967       C  0.92763836  0.18843609  0.39168536    -0.11500
C1968       C  0.91106159  0.18104346  0.39005992     0.20100
C1969       C  0.90799560  0.16489550  0.40881305    -0.13500
C1970       C  0.92146893  0.15614251  0.42884458    -0.11800
C1971       C  0.89737128  0.18984737  0.36825800     0.01000
C1972       C  0.88639036  0.19734855  0.34866162    -0.31800
C1973       C  0.95205916  0.15415201  0.44957993     0.02400
C1974       C  0.96356689  0.14569883  0.46476795    -0.33500
H1975       H  0.95389688  0.18546011  0.41243248     0.13500
H1976       H  0.93017959  0.20088934  0.37717895     0.13300
H1977       H  0.89525796  0.15902175  0.40764922     0.13100
H1978       H  0.91897950  0.14359156  0.44292319     0.12200
C1979       C  0.99840637  0.09566132  0.28559649     0.18500
C1980       C  0.98655573  0.08735825  0.25950490    -0.10600
C1981       C  0.98726445  0.09025186  0.21694324    -0.11500
C1982       C  0.99981347  0.10144119  0.20042023     0.20100
C1983       C  0.01171240  0.10968302  0.22648879    -0.13500
C1984       C  0.01100907  0.10678377  0.26904446    -0.11800
C1985       C  0.99993368  0.10487724  0.15689150     0.01000
C1986       C  0.99828244  0.10747214  0.12049019    -0.31800
C1987       C  0.99753173  0.09318626  0.32945999     0.02400
C1988       C  0.99782037  0.09249521  0.36656070    -0.33500
H1989       H  0.97672730  0.07879445  0.27205173     0.13500
H1990       H  0.97793988  0.08390948  0.19696467     0.13300
H1991       H  0.02138738  0.11843792  0.21400080     0.13100
H1992       H  0.02018528  0.11331325  0.28907526     0.12200
C1993       C  0.98244601  0.09680915  0.78602252     0.18500
C1994       C  0.98379449  0.08224911  0.76016452    -0.10600
C1995       C  0.98300713  0.08431597  0.71726008    -0.11500
C1996       C  0.98080966  0.10093313  0.70017879     0.20100
C1997       C  0.97932087  0.11544119  0.72608510    -0.13500
C1998       C  0.98011316  0.11337993  0.76889704    -0.11800
C1999       C  0.98107108  0.10328981  0.65615250     0.01000
C2000       C  0.98272561  0.10556408  0.61956662    -0.31800
C2001       C  0.98318062  0.09491323  0.83015047     0.02400
C2002       C  0.98290446  0.09462605  0.86733555    -0.33500
H2003       H  0.98553546  0.06937020  0.77311933     0.13500
H2004       H  0.98429260  0.07302379  0.69744757     0.13300
H2005       H  0.97774052  0.12835271  0.71318342     0.13100
H2006       H  0.97899138  0.12471175  0.78864538     0.12200
C2007       C  0.10425494  0.16119385  0.65387206     0.18500
C2008       C  0.10091155  0.16318971  0.61155092    -0.10600
C2009       C  0.08927531  0.15200603  0.59145595    -0.11500
C2010       C  0.08084563  0.13872875  0.61346331     0.20100
C2011       C  0.08431365  0.13663608  0.65567582    -0.13500
C2012       C  0.09595477  0.14781052  0.67575979    -0.11800
C2013       C  0.06787929  0.12807215  0.59323915     0.01000
C2014       C  0.05620718  0.12090316  0.57491998    -0.31800
C2015       C  0.11495748  0.17369330  0.67564517     0.02400
C2016       C  0.12184434  0.18495799  0.69605405    -0.33500
H2017       H  0.10700271  0.17360368  0.59430240     0.13500
H2018       H  0.08659242  0.15393479  0.55892249     0.13300
H2019       H  0.07777578  0.12659585  0.67323175     0.13100
H2020       H  0.09819369  0.14624700  0.70859004     0.12200
C2021       C  0.05792665  0.17154723  0.38290000     0.18500
C2022       C  0.07233934  0.16812915  0.35791586    -0.10600
C2023       C  0.08105837  0.18183743  0.33842394    -0.11500
C2024       C  0.07541614  0.19902721  0.34381353     0.20100
C2025       C  0.06096625  0.20242869  0.36866348    -0.13500
C2026       C  0.05225018  0.18872760  0.38813939    -0.11800
C2027       C  0.08480167  0.21317292  0.32496807     0.01000
C2028       C  0.09341894  0.22473023  0.31028975    -0.31800
C2029       C  0.04918379  0.15756410  0.40404758     0.02400
C2030       C  0.04176122  0.14644985  0.42356827    -0.33500
H2031       H  0.07690124  0.15491908  0.35377425     0.13500
H2032       H  0.09227616  0.17905331  0.31946124     0.13300
H2033       H  0.05653793  0.21565869  0.37325652     0.13100
H2034       H  0.04117041  0.19154062  0.40753558     0.12200
C2035       C  0.99853284  0.01718596  0.51975957     0.18500
C2036       C  0.00492264  0.00405046  0.54562033    -0.10600
C2037       C  0.99743216  0.98739710  0.54495225    -0.11500
C2038       C  0.98347133  0.98372714  0.51851350     0.20100
C2039       C  0.97700760  0.99691108  0.49295227    -0.13500
C2040       C  0.98448508  0.01354326  0.49362707    -0.11800
C2041       C  0.97622963  0.96631378  0.51709300     0.01000
C2042       C  0.97217945  0.95108154  0.51842736    -0.31800
C2043       C  0.00609481  0.03446458  0.51961972     0.02400
C2044       C  0.01007530  0.04962270  0.51552591    -0.33500
H2045       H  0.01570595  0.00663931  0.56609105     0.13500
H2046       H  0.00260571  0.97733895  0.56486789     0.13300
H2047       H  0.96627771  0.99431722  0.47232763     0.13100
H2048       H  0.97934953  0.02356998  0.47356412     0.12200
loop_ 
_geom_bond_atom_site_label_1 
_geom_bond_atom_site_label_2 
_geom_bond_distance 
_geom_bond_site_symmetry_2 
_ccdc_geom_bond_type 
O1          Cr19   2.014   1_655  S
O1            C9   1.268       .  A
O2          Cr19   1.973       .  S
O2            C3   1.257       .  A
C3            O4   1.266       .  A
C3         C2014   1.443       .  S
O4          Cr20   2.020       .  S
O5          Cr20   2.005       .  S
O5            C6   1.264       .  A
C6            O7   1.259   1_455  A
C6         C2044   1.443       .  S
O7          Cr21   1.994       .  S
O8          Cr21   1.969       .  S
O8            C9   1.260       .  A
C9         C2000   1.432       .  S
O10         Cr19   1.982   1_655  S
O10          C18   1.255       .  A
O11         Cr19   2.003       .  S
O11          C12   1.264       .  A
C12          O13   1.260       .  A
C12        C2030   1.437       .  S
O13         Cr20   1.983       .  S
O14         Cr20   2.012       .  S
O14          C15   1.268   1_455  A
C15          O16   1.260       .  A
C15        C1988   1.429       .  S
O16         Cr21   1.971       .  S
O17         Cr21   2.002       .  S
O17          C18   1.259       .  A
C18        C1974   1.436       .  S
Cr19         O22   1.772       .  S
Cr20         O22   1.775       .  S
Cr21         O22   1.776   1_655  S
O23         Cr41   1.971       .  S
O23          C31   1.261       .  A
O24         Cr41   1.994       .  S
O24          C25   1.259       .  A
C25          O26   1.265       .  A
C25        C2042   1.443       .  S
O26         Cr42   2.005       .  S
O27         Cr42   2.019       .  S
O27          C28   1.266       .  A
C28          O29   1.257       .  A
C28        C1946   1.444       .  S
O29         Cr43   1.975       .  S
O30         Cr43   2.013       .  S
O30          C31   1.268       .  A
C31        C1930   1.432       .  S
O32         Cr41   2.001   1_455  S
O32          C40   1.258       .  A
O33         Cr41   1.976       .  S
O33          C34   1.262       .  A
C34          O35   1.267       .  A
C34        C1916   1.432       .  S
O35         Cr42   2.011       .  S
O36         Cr42   1.982       .  S
O36          C37   1.260       .  A
C37          O38   1.263       .  A
C37        C1958   1.436       .  S
O38         Cr43   2.002       .  S
O39         Cr43   1.985       .  S
O39          C40   1.255   1_655  A
C40        C1902   1.438       .  S
Cr41         O44   1.776       .  S
Cr42         O44   1.778       .  S
Cr43         O44   1.776       .  S
O45         Cr63   2.010       .  S
O45          C53   1.267       .  A
O46         Cr63   1.971       .  S
O46          C47   1.256       .  A
C47          O48   1.268       .  A
C47        C2016   1.443       .  S
O48         Cr64   2.024       .  S
O49         Cr64   2.003       .  S
O49          C50   1.265       .  A
C50          O51   1.260       .  A
C50        C1890   1.444       .  S
O51         Cr65   1.997       .  S
O52         Cr65   1.972       .  S
O52          C53   1.261       .  A
C53        C1846   1.431       .  S
O54         Cr63   1.982       .  S
O54          C62   1.255       .  A
O55         Cr63   2.000       .  S
O55          C56   1.262       .  A
C56          O57   1.258       .  A
C56        C1874   1.433       .  S
O57         Cr64   1.978       .  S
O58         Cr64   2.012       .  S
O58          C59   1.268       .  A
C59          O60   1.261       .  A
C59        C1832   1.431       .  S
O60         Cr65   1.973       .  S
O61         Cr65   2.004       .  S
O61          C62   1.259       .  A
C62        C1860   1.436       .  S
Cr63         O66   1.774       .  S
Cr64         O66   1.775       .  S
Cr65         O66   1.774       .  S
O67         Cr85   1.970       .  S
O67          C75   1.260       .  A
O68         Cr85   1.995       .  S
O68          C69   1.260       .  A
C69          O70   1.265       .  A
C69        C1888   1.444       .  S
O70         Cr86   2.007       .  S
O71         Cr86   2.019       .  S
O71          C72   1.266       .  A
C72          O73   1.257       .  A
C72        C1804   1.444       .  S
O73         Cr87   1.974       .  S
O74         Cr87   2.011       .  S
O74          C75   1.268       .  A
C75        C1776   1.429       .  S
O76         Cr85   1.999       .  S
O76          C84   1.258       .  A
O77         Cr85   1.975       .  S
O77          C78   1.261       .  A
C78          O79   1.267       .  A
C78        C1764   1.432       .  S
O79         Cr86   2.012       .  S
O80         Cr86   1.982       .  S
O80          C81   1.260       .  A
C81          O82   1.264       .  A
C81        C1818   1.437       .  S
O82         Cr87   2.003       .  S
O83         Cr87   1.979       .  S
O83          C84   1.254       .  A
C84        C1790   1.432       .  S
Cr85         O88   1.776       .  S
Cr86         O88   1.775       .  S
Cr87         O88   1.773       .  S
O89        Cr107   1.968       .  S
O89          C97   1.260       .  A
O90        Cr107   1.994       .  S
O90          C91   1.259       .  A
C91          O92   1.265       .  A
C91        C1750   1.445       .  S
O92        Cr108   2.009       .  S
O93        Cr108   2.017       .  S
O93          C94   1.266       .  A
C94          O95   1.257       .  A
C94        C1944   1.443       .  S
O95        Cr109   1.974       .  S
O96        Cr109   2.015       .  S
O96          C97   1.270       .  A
C97        C1706   1.432       .  S
O98        Cr107   2.003       .  S
O98         C106   1.258       .  A
O99        Cr107   1.973       .  S
O99         C100   1.261       .  A
C100        O101   1.268       .  A
C100       C1720   1.430       .  S
O101       Cr108   2.012       .  S
O102       Cr108   1.983       .  S
O102        C103   1.260       .  A
C103        O104   1.264       .  A
C103       C1734   1.437       .  S
O104       Cr109   2.002       .  S
O105       Cr109   1.987       .  S
O105        C106   1.255       .  A
C106       C1692   1.439       .  S
Cr107       O110   1.777       .  S
Cr108       O110   1.775       .  S
Cr109       O110   1.773       .  S
O111       Cr129   2.013       .  S
O111        C119   1.269       .  A
O112       Cr129   1.975       .  S
O112        C113   1.257       .  A
C113        O114   1.266       .  A
C113       C1666   1.444       .  S
O114       Cr130   2.018       .  S
O115       Cr130   2.008       .  S
O115        C116   1.265       .  A
C116        O117   1.258       .  A
C116       C1748   1.445       .  S
O117       Cr131   1.993       .  S
O118       Cr131   1.973       .  S
O118        C119   1.262       .  A
C119       C1622   1.433       .  S
O120       Cr129   1.988       .  S
O120        C128   1.255       .  A
O121       Cr129   1.999       .  S
O121        C122   1.263       .  A
C122        O123   1.259       .  A
C122       C1678   1.434       .  S
O123       Cr130   1.979       .  S
O124       Cr130   2.011       .  S
O124        C125   1.268       .  A
C125        O126   1.263       .  A
C125       C1638   1.432       .  S
O126       Cr131   1.976       .  S
O127       Cr131   2.000       .  S
O127        C128   1.257       .  A
C128       C1650   1.439       .  S
Cr129       O132   1.775       .  S
Cr130       O132   1.778       .  S
Cr131       O132   1.776       .  S
O133       Cr151   2.010       .  S
O133        C141   1.268       .  A
O134       Cr151   1.976       .  S
O134        C135   1.259       .  A
C135        O136   1.266       .  A
C135       C1664   1.444       .  S
O136       Cr152   2.017   1_554  S
O137       Cr152   2.009   1_554  S
O137        C138   1.265       .  A
C138        O139   1.258   1_554  A
C138       C1608   1.447       .  S
O139       Cr153   1.994       .  S
O140       Cr153   1.970   1_554  S
O140        C141   1.261       .  A
C141       C1582   1.429       .  S
O142       Cr151   1.988   1_556  S
O142        C150   1.256       .  A
O143       Cr151   1.998   1_556  S
O143        C144   1.262       .  A
C144        O145   1.260       .  A
C144       C1594   1.438       .  S
O145       Cr152   1.986       .  S
O146       Cr152   2.009       .  S
O146        C147   1.267       .  A
C147        O148   1.261       .  A
C147       C1566   1.426       .  S
O148       Cr153   1.969       .  S
O149       Cr153   2.004       .  S
O149        C150   1.258       .  A
C150       C1552   1.440       .  S
Cr151       O154   1.775   1_554  S
Cr152       O154   1.777       .  S
Cr153       O154   1.778       .  S
O155       Cr173   1.970   1_556  S
O155        C163   1.260       .  A
O156       Cr173   1.995       .  S
O156        C157   1.259       .  A
C157        O158   1.266       .  A
C157       C1610   1.447       .  S
O158       Cr174   2.011       .  S
O159       Cr174   2.016       .  S
O159        C160   1.265   1_554  A
C160        O161   1.258       .  A
C160       C1806   1.444       .  S
O161       Cr175   1.977       .  S
O162       Cr175   2.013       .  S
O162        C163   1.268       .  A
C163       C1524   1.431       .  S
O164       Cr173   1.999       .  S
O164        C172   1.257       .  A
O165       Cr173   1.976       .  S
O165        C166   1.261       .  A
C166        O167   1.267       .  A
C166       C1510   1.432       .  S
O167       Cr174   2.010       .  S
O168       Cr174   1.986       .  S
O168        C169   1.261       .  A
C169        O170   1.264       .  A
C169       C1540   1.439       .  S
O170       Cr175   2.002   1_554  S
O171       Cr175   1.985   1_554  S
O171        C172   1.255       .  A
C172       C1496   1.436       .  S
Cr173       O176   1.777       .  S
Cr174       O176   1.776       .  S
Cr175       O176   1.775   1_556  S
O177       Cr195   2.012       .  S
O177        C185   1.268       .  A
O178       Cr195   1.973       .  S
O178        C179   1.257       .  A
C179        O180   1.267       .  A
C179       C1470   1.444       .  S
O180       Cr196   2.021       .  S
O181       Cr196   2.008       .  S
O181        C182   1.266       .  A
C182        O183   1.259       .  A
C182       C1482   1.445       .  S
O183       Cr197   1.994       .  S
O184       Cr197   1.970       .  S
O184        C185   1.261       .  A
C185       C1426   1.431       .  S
O186       Cr195   1.982       .  S
O186        C194   1.254       .  A
O187       Cr195   2.002       .  S
O187        C188   1.263       .  A
C188        O189   1.259       .  A
C188       C1904   1.438       .  S
O189       Cr196   1.983       .  S
O190       Cr196   2.009       .  S
O190        C191   1.267       .  A
C191        O192   1.262       .  A
C191       C1442   1.430       .  S
O192       Cr197   1.974       .  S
O193       Cr197   2.001       .  S
O193        C194   1.258       .  A
C194       C1456   1.435       .  S
Cr195       O198   1.774       .  S
Cr196       O198   1.776       .  S
Cr197       O198   1.776       .  S
O199       Cr217   1.972       .  S
O199        C207   1.261       .  A
O200       Cr217   1.995       .  S
O200        C201   1.259       .  A
C201        O202   1.264       .  A
C201       C1484   1.446       .  S
O202       Cr218   2.008       .  S
O203       Cr218   2.019       .  S
O203        C204   1.267       .  A
C204        O205   1.258       .  A
C204       C1412   1.444       .  S
O205       Cr219   1.975       .  S
O206       Cr219   2.011       .  S
O206        C207   1.268       .  A
C207       C1386   1.431       .  S
O208       Cr217   2.003       .  S
O208        C216   1.258       .  A
O209       Cr217   1.975       .  S
O209        C210   1.262       .  A
C210        O211   1.268       .  A
C210       C1370   1.433       .  S
O211       Cr218   2.014       .  S
O212       Cr218   1.985       .  S
O212        C213   1.260       .  A
C213        O214   1.263       .  A
C213       C1554   1.439       .  S
O214       Cr219   2.001       .  S
O215       Cr219   1.985       .  S
O215        C216   1.256       .  A
C216       C1400   1.438       .  S
Cr217       O220   1.778       .  S
Cr218       O220   1.777       .  S
Cr219       O220   1.776       .  S
O221       Cr239   2.015   1_656  S
O221        C229   1.269       .  A
O222       Cr239   1.975   1_556  S
O222        C223   1.258       .  A
C223        O224   1.266   1_556  A
C223       C1468   1.444       .  S
O224       Cr240   2.017       .  S
O225       Cr240   2.011       .  S
O225        C226   1.265       .  A
C226        O227   1.256   1_455  A
C226       C1356   1.444       .  S
O227       Cr241   1.989       .  S
O228       Cr241   1.972   1_556  S
O228        C229   1.262       .  A
C229       C1918   1.433       .  S
O230       Cr239   1.988   1_655  S
O230        C238   1.255       .  A
O231       Cr239   2.001       .  S
O231        C232   1.263       .  A
C232        O233   1.260       .  A
C232       C1342   1.439       .  S
O233       Cr240   1.985       .  S
O234       Cr240   2.013       .  S
O234        C235   1.269       .  A
C235        O236   1.263   1_455  A
C235       C1932   1.432       .  S
O236       Cr241   1.975       .  S
O237       Cr241   1.997       .  S
O237        C238   1.256       .  A
C238       C1736   1.437       .  S
Cr239       O242   1.775       .  S
Cr240       O242   1.777       .  S
Cr241       O242   1.778   1_655  S
O243       Cr261   1.968   1_554  S
O243        C251   1.260       .  A
O244       Cr261   1.997       .  S
O244        C245   1.260   1_556  A
C245        O246   1.264       .  A
C245       C1358   1.443       .  S
O246       Cr262   2.002   1_554  S
O247       Cr262   2.020   1_554  S
O247        C248   1.266       .  A
C248        O249   1.257       .  A
C248       C1316   1.444       .  S
O249       Cr263   1.975       .  S
O250       Cr263   2.010       .  S
O250        C251   1.267       .  A
C251       C1986   1.428       .  S
O252       Cr261   2.001   1_455  S
O252        C260   1.258       .  A
O253       Cr261   1.976       .  S
O253        C254   1.261       .  A
C254        O255   1.267       .  A
C254       C2002   1.432       .  S
O255       Cr262   2.011       .  S
O256       Cr262   1.978       .  S
O256        C257   1.259       .  A
C257        O258   1.263       .  A
C257       C1328   1.433       .  S
O258       Cr263   2.001   1_556  S
O259       Cr263   1.981   1_556  S
O259        C260   1.255   1_655  A
C260       C1876   1.434       .  S
Cr261       O264   1.775       .  S
Cr262       O264   1.776       .  S
Cr263       O264   1.775   1_554  S
O265       Cr283   1.968       .  S
O265        C273   1.260       .  A
O266       Cr283   1.992       .  S
O266        C267   1.258       .  A
C267        O268   1.265       .  A
C267       C1300   1.444       .  S
O268       Cr284   2.008       .  S
O269       Cr284   2.019       .  S
O269        C270   1.267       .  A
C270        O271   1.258       .  A
C270       C1414   1.444       .  S
O271       Cr285   1.975       .  S
O272       Cr285   2.009       .  S
O272        C273   1.267       .  A
C273       C1568   1.427       .  S
O274       Cr283   1.998       .  S
O274        C282   1.257       .  A
O275       Cr283   1.971       .  S
O275        C276   1.261       .  A
C276        O277   1.268       .  A
C276       C1580   1.429       .  S
O277       Cr284   2.012       .  S
O278       Cr284   1.983       .  S
O278        C279   1.259       .  A
C279        O280   1.262       .  A
C279       C1286   1.435       .  S
O280       Cr285   1.998       .  S
O281       Cr285   1.985       .  S
O281        C282   1.255       .  A
C282       C1680   1.434       .  S
Cr283       O286   1.776       .  S
Cr284       O286   1.775       .  S
Cr285       O286   1.774       .  S
O287       Cr305   2.013       .  S
O287        C295   1.268       .  A
O288       Cr305   1.975       .  S
O288        C289   1.258       .  A
C289        O290   1.267       .  A
C289       C1260   1.445       .  S
O290       Cr306   2.021       .  S
O291       Cr306   2.005       .  S
O291        C292   1.265       .  A
C292        O293   1.259       .  A
C292       C1302   1.445       .  S
O293       Cr307   1.995       .  S
O294       Cr307   1.971       .  S
O294        C295   1.261       .  A
C295       C1512   1.432       .  S
O296       Cr305   1.985       .  S
O296        C304   1.255       .  A
O297       Cr305   2.001       .  S
O297        C298   1.263       .  A
C298        O299   1.260       .  A
C298       C1272   1.436       .  S
O299       Cr306   1.983       .  S
O300       Cr306   2.011       .  S
O300        C301   1.267       .  A
C301        O302   1.261       .  A
C301       C1526   1.430       .  S
O302       Cr307   1.974       .  S
O303       Cr307   2.002       .  S
O303        C304   1.258       .  A
C304       C1820   1.437       .  S
Cr305       O308   1.774       .  S
Cr306       O308   1.777       .  S
Cr307       O308   1.777       .  S
O309       Cr327   1.969       .  S
O309        C317   1.260       .  A
O310       Cr327   1.997       .  S
O310        C311   1.260       .  A
C311        O312   1.265       .  A
C311       C1244   1.447       .  S
O312       Cr328   2.007       .  S
O313       Cr328   2.019       .  S
O313        C314   1.266       .  A
C314        O315   1.258       .  A
C314       C1314   1.444       .  S
O315       Cr329   1.975       .  S
O316       Cr329   2.010       .  S
O316        C317   1.267       .  A
C317       C1218   1.428       .  S
O318       Cr327   2.001       .  S
O318        C326   1.258       .  A
O319       Cr327   1.973       .  S
O319        C320   1.261       .  A
C320        O321   1.267       .  A
C320       C1204   1.429       .  S
O321       Cr328   2.010       .  S
O322       Cr328   1.983       .  S
O322        C323   1.260       .  A
C323        O324   1.263       .  A
C323       C1972   1.436       .  S
O324       Cr329   2.001       .  S
O325       Cr329   1.982       .  S
O325        C326   1.255       .  A
C326       C1230   1.435       .  S
Cr327       O330   1.777       .  S
Cr328       O330   1.776       .  S
Cr329       O330   1.775       .  S
O331       Cr349   2.013       .  S
O331        C339   1.269       .  A
O332       Cr349   1.972       .  S
O332        C333   1.257       .  A
C333        O334   1.267       .  A
C333       C1258   1.445       .  S
O334       Cr350   2.023       .  S
O335       Cr350   2.009       .  S
O335        C336   1.266       .  A
C336        O337   1.259       .  A
C336       C1246   1.447       .  S
O337       Cr351   1.995       .  S
O338       Cr351   1.969       .  S
O338        C339   1.261       .  A
C339       C1174   1.430       .  S
O340       Cr349   1.987       .  S
O340        C348   1.255       .  A
O341       Cr349   2.001       .  S
O341        C342   1.263       .  A
C342        O343   1.259       .  A
C342       C1498   1.436       .  S
O343       Cr350   1.982       .  S
O344       Cr350   2.012       .  S
O344        C345   1.268       .  A
C345        O346   1.261       .  A
C345       C1162   1.430       .  S
O346       Cr351   1.973       .  S
O347       Cr351   2.001       .  S
O347        C348   1.257       .  A
C348       C1188   1.438       .  S
Cr349       O352   1.773       .  S
Cr350       O352   1.776       .  S
Cr351       O352   1.776       .  S
O353       Cr371   2.010       .  S
O353        C361   1.267       .  A
O354       Cr371   1.970       .  S
O354        C355   1.256       .  A
C355        O356   1.267       .  A
C355       C1134   1.441       .  S
O356       Cr372   2.021   1_554  S
O357       Cr372   2.005   1_554  S
O357        C358   1.265       .  A
C358        O359   1.259   1_554  A
C358       C1146   1.442       .  S
O359       Cr373   1.992       .  S
O360       Cr373   1.968   1_554  S
O360        C361   1.259       .  A
C361       C1104   1.428       .  S
O362       Cr371   1.980   1_556  S
O362        C370   1.255       .  A
O363       Cr371   2.002   1_556  S
O363        C364   1.263       .  A
C364        O365   1.260       .  A
C364       C1398   1.438       .  S
O365       Cr372   1.984       .  S
O366       Cr372   2.011       .  S
O366        C367   1.268       .  A
C367        O368   1.261       .  A
C367       C1092   1.429       .  S
O368       Cr373   1.972       .  S
O369       Cr373   2.001       .  S
O369        C370   1.259       .  A
C370       C1118   1.433       .  S
Cr371       O374   1.773   1_554  S
Cr372       O374   1.774       .  S
Cr373       O374   1.775       .  S
O375       Cr393   1.968   1_556  S
O375        C383   1.260       .  A
O376       Cr393   1.994       .  S
O376        C377   1.259       .  A
C377        O378   1.264       .  A
C377       C1148   1.443       .  S
O378       Cr394   2.005       .  S
O379       Cr394   2.016       .  S
O379        C380   1.265   1_554  A
C380        O381   1.257       .  A
C380       C1078   1.442       .  S
O381       Cr395   1.974   1_556  S
O382       Cr395   2.013   1_556  S
O382        C383   1.269       .  A
C383       C1048   1.430       .  S
O384       Cr393   2.002       .  S
O384        C392   1.258       .  A
O385       Cr393   1.972       .  S
O385        C386   1.261       .  A
C386        O387   1.268       .  A
C386       C1036   1.429       .  S
O387       Cr394   2.011       .  S
O388       Cr394   1.983       .  S
O388        C389   1.260       .  A
C389        O390   1.264       .  A
C389       C1190   1.438       .  S
O390       Cr395   2.004       .  S
O391       Cr395   1.986       .  S
O391        C392   1.256       .  A
C392       C1062   1.438       .  S
Cr393       O396   1.777       .  S
Cr394       O396   1.777       .  S
Cr395       O396   1.773       .  S
O397       Cr415   1.968       .  S
O397        C405   1.261       .  A
O398       Cr415   1.994       .  S
O398        C399   1.258       .  A
C399        O400   1.265       .  A
C399       C1020   1.447       .  S
O400       Cr416   2.010       .  S
O401       Cr416   2.021       .  S
O401        C402   1.267       .  A
C402        O403   1.257       .  A
C402        C994   1.445       .  S
O403       Cr417   1.974       .  S
O404       Cr417   2.013       .  S
O404        C405   1.269       .  A
C405       C1440   1.430       .  S
O406       Cr415   2.000       .  S
O406        C414   1.257       .  A
O407       Cr415   1.973       .  S
O407        C408   1.262       .  A
C408        O409   1.268       .  A
C408       C1428   1.430       .  S
O409       Cr416   2.013       .  S
O410       Cr416   1.981       .  S
O410        C411   1.259       .  A
C411        O412   1.263       .  A
C411       C1006   1.436       .  S
O412       Cr417   2.000       .  S
O413       Cr417   1.988       .  S
O413        C414   1.255       .  A
C414       C1344   1.439       .  S
Cr415       O418   1.777       .  S
Cr416       O418   1.777       .  S
Cr417       O418   1.774       .  S
O419       Cr437   2.014       .  S
O419        C427   1.269       .  A
O420       Cr437   1.972       .  S
O420        C421   1.257       .  A
C421        O422   1.267       .  A
C421       C1132   1.442       .  S
O422       Cr438   2.019       .  S
O423       Cr438   2.010       .  S
O423        C424   1.266       .  A
C424        O425   1.258       .  A
C424       C1022   1.447       .  S
O425       Cr439   1.994       .  S
O426       Cr439   1.973       .  S
O426        C427   1.261       .  A
C427       C1372   1.434       .  S
O428       Cr437   1.983       .  S
O428        C436   1.254       .  A
O429       Cr437   2.003       .  S
O429        C430   1.263       .  A
C430        O431   1.260       .  A
C430        C978   1.441       .  S
O431       Cr438   1.987       .  S
O432       Cr438   2.010       .  S
O432        C433   1.267       .  A
C433        O434   1.262       .  A
C433       C1384   1.430       .  S
O434       Cr439   1.974       .  S
O435       Cr439   2.001       .  S
O435        C436   1.258       .  A
C436       C1288   1.435       .  S
Cr437       O440   1.775       .  S
Cr438       O440   1.776       .  S
Cr439       O440   1.777       .  S
O441       Cr459   1.969       .  S
O441        C449   1.261       .  A
O442       Cr459   1.992       .  S
O442        C443   1.258   1_655  A
C443        O444   1.266       .  A
C443        C966   1.445       .  S
O444       Cr460   2.010       .  S
O445       Cr460   2.020       .  S
O445        C446   1.267       .  A
C446        O447   1.258       .  A
C446        C992   1.445       .  S
O447       Cr461   1.975       .  S
O448       Cr461   2.011   1_655  S
O448        C449   1.268       .  A
C449        C938   1.430       .  S
O450       Cr459   2.000       .  S
O450        C458   1.257       .  A
O451       Cr459   1.971       .  S
O451        C452   1.261       .  A
C452        O453   1.268   1_655  A
C452        C922   1.427       .  S
O453       Cr460   2.010       .  S
O454       Cr460   1.984       .  S
O454        C455   1.260       .  A
C455        O456   1.262       .  A
C455       C1454   1.435       .  S
O456       Cr461   1.997       .  S
O457       Cr461   1.986   1_655  S
O457        C458   1.255       .  A
C458        C952   1.437       .  S
Cr459       O462   1.777   1_655  S
Cr460       O462   1.775       .  S
Cr461       O462   1.774       .  S
O463       Cr481   2.012       .  S
O463        C471   1.269       .  A
O464       Cr481   1.980       .  S
O464        C465   1.259       .  A
C465        O466   1.265       .  A
C465        C908   1.445       .  S
O466       Cr482   2.014       .  S
O467       Cr482   2.005       .  S
O467        C468   1.265       .  A
C468        O469   1.260       .  A
C468        C964   1.445       .  S
O469       Cr483   1.997       .  S
O470       Cr483   1.970       .  S
O470        C471   1.261       .  A
C471        C882   1.431       .  S
O472       Cr481   1.986       .  S
O472        C480   1.255   1_655  A
O473       Cr481   2.001       .  S
O473        C474   1.263       .  A
C474        O475   1.259       .  A
C474       C1232   1.434       .  S
O475       Cr482   1.978       .  S
O476       Cr482   2.009       .  S
O476        C477   1.266       .  A
C477        O478   1.261       .  A
C477        C868   1.432       .  S
O478       Cr483   1.977       .  S
O479       Cr483   2.002   1_455  S
O479        C480   1.258       .  A
C480        C894   1.439       .  S
Cr481       O484   1.775       .  S
Cr482       O484   1.776       .  S
Cr483       O484   1.776       .  S
O485       Cr503   2.011       .  S
O485        C493   1.268       .  A
O486       Cr503   1.975       .  S
O486        C487   1.258       .  A
C487        O488   1.266       .  A
C487        C910   1.443       .  S
O488       Cr504   2.017       .  S
O489       Cr504   2.010       .  S
O489        C490   1.265       .  A
C490        O491   1.258       .  A
C490        C854   1.446       .  S
O491       Cr505   1.994       .  S
O492       Cr505   1.968       .  S
O492        C493   1.260       .  A
C493       C1202   1.428       .  S
O494       Cr503   1.983       .  S
O494        C502   1.255       .  A
O495       Cr503   2.001       .  S
O495        C496   1.263       .  A
C496        O497   1.261       .  A
C496        C838   1.438       .  S
O497       Cr504   1.985       .  S
O498       Cr504   2.011       .  S
O498        C499   1.268       .  A
C499        O500   1.261       .  A
C499       C1216   1.429       .  S
O500       Cr505   1.973       .  S
O501       Cr505   1.998       .  S
O501        C502   1.257       .  A
C502       C1330   1.434       .  S
Cr503       O506   1.773       .  S
Cr504       O506   1.775       .  S
Cr505       O506   1.777       .  S
O507       Cr525   1.973       .  S
O507        C515   1.261       .  A
O508       Cr525   1.993       .  S
O508        C509   1.258       .  A
C509        O510   1.265       .  A
C509        C852   1.446       .  S
O510       Cr526   2.009       .  S
O511       Cr526   2.020       .  S
O511        C512   1.267       .  A
C512        O513   1.258       .  A
C512       C1076   1.443       .  S
O513       Cr527   1.973       .  S
O514       Cr527   2.009       .  S
O514        C515   1.266       .  A
C515       C1160   1.430       .  S
O516       Cr525   2.004       .  S
O516        C524   1.259       .  A
O517       Cr525   1.970       .  S
O517        C518   1.261       .  A
C518        O519   1.268       .  A
C518       C1176   1.429       .  S
O519       Cr526   2.012       .  S
O520       Cr526   1.990       .  S
O520        C521   1.261       .  A
C521        O522   1.262       .  A
C521        C824   1.441       .  S
O522       Cr527   2.000       .  S
O523       Cr527   1.983       .  S
O523        C524   1.256       .  A
C524       C1274   1.436       .  S
Cr525       O528   1.777       .  S
Cr526       O528   1.777       .  S
Cr527       O528   1.776       .  S
O529       Cr547   2.010   1_556  S
O529        C537   1.268       .  A
O530       Cr547   1.978   1_556  S
O530        C531   1.259       .  A
C531        O532   1.267   1_556  A
C531        C798   1.448       .  S
O532       Cr548   2.021       .  S
O533       Cr548   2.012       .  S
O533        C534   1.267       .  A
C534        O535   1.259       .  A
C534        C812   1.448       .  S
O535       Cr549   1.996       .  S
O536       Cr549   1.967   1_556  S
O536        C537   1.260       .  A
C537        C924   1.427       .  S
O538       Cr547   1.984       .  S
O538        C546   1.255   1_655  A
O539       Cr547   1.998       .  S
O539        C540   1.262       .  A
C540        O541   1.261       .  A
C540       C1694   1.438       .  S
O541       Cr548   1.988       .  S
O542       Cr548   2.010       .  S
O542        C543   1.267       .  A
C543        O544   1.261       .  A
C543        C936   1.430       .  S
O544       Cr549   1.973       .  S
O545       Cr549   2.000   1_455  S
O545        C546   1.257       .  A
C546       C1008   1.435       .  S
Cr547       O550   1.775       .  S
Cr548       O550   1.777       .  S
Cr549       O550   1.778       .  S
O551       Cr569   1.972   1_554  S
O551        C559   1.261       .  A
O552       Cr569   1.994       .  S
O552        C553   1.259   1_656  A
C553        O554   1.266       .  A
C553        C810   1.447       .  S
O554       Cr570   2.011   1_554  S
O555       Cr570   2.017   1_554  S
O555        C556   1.266       .  A
C556        O557   1.259       .  A
C556        C784   1.447       .  S
O557       Cr571   1.979       .  S
O558       Cr571   2.012   1_655  S
O558        C559   1.268       .  A
C559        C866   1.432       .  S
O560       Cr569   2.001       .  S
O560        C568   1.257       .  A
O561       Cr569   1.977       .  S
O561        C562   1.262   1_655  A
C562        O563   1.267       .  A
C562        C880   1.432   1_455  S
O563       Cr570   2.009       .  S
O564       Cr570   1.985       .  S
O564        C565   1.261       .  A
C565        O566   1.263       .  A
C565       C1862   1.436       .  S
O566       Cr571   1.998   1_556  S
O567       Cr571   1.986   1_656  S
O567        C568   1.255       .  A
C568        C840   1.438       .  S
Cr569       O572   1.778   1_655  S
Cr570       O572   1.777       .  S
Cr571       O572   1.776   1_554  S
O573       Cr591   2.010       .  S
O573        C581   1.267       .  A
O574       Cr591   1.975       .  S
O574        C575   1.258       .  A
C575        O576   1.268       .  A
C575        C796   1.447       .  S
O576       Cr592   2.025       .  S
O577       Cr592   2.006       .  S
O577        C578   1.265       .  A
C578        O579   1.259       .  A
C578        C768   1.444       .  S
O579       Cr593   1.994       .  S
O580       Cr593   1.972       .  S
O580        C581   1.261       .  A
C581       C1722   1.430       .  S
O582       Cr591   1.984       .  S
O582        C590   1.255       .  A
O583       Cr591   2.000       .  S
O583        C584   1.262       .  A
C584        O585   1.259       .  A
C584        C950   1.436       .  S
O585       Cr592   1.983       .  S
O586       Cr592   2.014       .  S
O586        C587   1.268       .  A
C587        O588   1.261       .  A
C587       C1708   1.432       .  S
O588       Cr593   1.974       .  S
O589       Cr593   2.001       .  S
O589        C590   1.259       .  A
C590       C1960   1.436       .  S
Cr591       O594   1.774       .  S
Cr592       O594   1.776       .  S
Cr593       O594   1.776       .  S
O595       Cr613   1.971       .  S
O595        C603   1.261       .  A
O596       Cr613   1.994       .  S
O596        C597   1.259       .  A
C597        O598   1.265       .  A
C597        C770   1.443       .  S
O598       Cr614   2.006       .  S
O599       Cr614   2.020       .  S
O599        C600   1.266       .  A
C600        O601   1.258       .  A
C600        C754   1.446       .  S
O601       Cr615   1.977       .  S
O602       Cr615   2.012       .  S
O602        C603   1.268       .  A
C603       C1636   1.432       .  S
O604       Cr613   2.001       .  S
O604        C612   1.258       .  A
O605       Cr613   1.976       .  S
O605        C606   1.261       .  A
C606        O607   1.267       .  A
C606       C1624   1.433       .  S
O607       Cr614   2.013       .  S
O608       Cr614   1.979       .  S
O608        C609   1.259       .  A
C609        O610   1.263       .  A
C609       C1120   1.433       .  S
O610       Cr615   2.000       .  S
O611       Cr615   1.985       .  S
O611        C612   1.255       .  A
C612       C1596   1.438       .  S
Cr613       O616   1.776       .  S
Cr614       O616   1.777       .  S
Cr615       O616   1.775       .  S
O617       Cr635   2.011       .  S
O617        C625   1.268       .  A
O618       Cr635   1.978       .  S
O618        C619   1.258       .  A
C619        O620   1.265       .  A
C619        C728   1.444       .  S
O620       Cr636   2.015       .  S
O621       Cr636   2.006       .  S
O621        C622   1.265       .  A
C622        O623   1.260       .  A
C622        C742   1.445       .  S
O623       Cr637   1.996       .  S
O624       Cr637   1.969       .  S
O624        C625   1.261       .  A
C625       C1034   1.430       .  S
O626       Cr635   1.989       .  S
O626        C634   1.255       .  A
O627       Cr635   1.997       .  S
O627        C628   1.262       .  A
C628        O629   1.259       .  A
C628       C1792   1.431       .  S
O629       Cr636   1.978       .  S
O630       Cr636   2.006       .  S
O630        C631   1.266       .  A
C631        O632   1.261       .  A
C631       C1050   1.429       .  S
O632       Cr637   1.976       .  S
O633       Cr637   2.002       .  S
O633        C634   1.258       .  A
C634        C826   1.441       .  S
Cr635       O638   1.775       .  S
Cr636       O638   1.777       .  S
Cr637       O638   1.775       .  S
O639       Cr657   1.965       .  S
O639        C647   1.260       .  A
O640       Cr657   1.993       .  S
O640        C641   1.258       .  A
C641        O642   1.265       .  A
C641        C740   1.446       .  S
O642       Cr658   2.009       .  S
O643       Cr658   2.019       .  S
O643        C644   1.266       .  A
C644        O645   1.258       .  A
C644        C756   1.446       .  S
O645       Cr659   1.976       .  S
O646       Cr659   2.013       .  S
O646        C647   1.269       .  A
C647       C1090   1.428       .  S
O648       Cr657   2.004       .  S
O648        C656   1.258       .  A
O649       Cr657   1.969       .  S
O649        C650   1.262       .  A
C650        O651   1.269       .  A
C650       C1106   1.427       .  S
O651       Cr658   2.012       .  S
O652       Cr658   1.984       .  S
O652        C653   1.260       .  A
C653        O654   1.263       .  A
C653       C1652   1.438       .  S
O654       Cr659   2.000       .  S
O655       Cr659   1.990       .  S
O655        C656   1.256       .  A
C656        C980   1.442       .  S
Cr657       O660   1.778       .  S
Cr658       O660   1.777       .  S
Cr659       O660   1.775       .  S
O661       Cr679   1.968       .  S
O661        C669   1.260       .  A
O662       Cr679   1.996       .  S
O662        C663   1.259       .  A
C663        O664   1.266       .  A
C663        C714   1.447       .  S
O664       Cr680   2.010       .  S
O665       Cr680   2.021       .  S
O665        C666   1.266       .  A
C666        O667   1.258       .  A
C666        C782   1.446       .  S
O667       Cr681   1.976       .  S
O668       Cr681   2.013       .  S
O668        C669   1.269       .  A
C669       C1834   1.430       .  S
O670       Cr679   2.001       .  S
O670        C678   1.258       .  A
O671       Cr679   1.974       .  S
O671        C672   1.261       .  A
C672        O673   1.268       .  A
C672       C1848   1.431       .  S
O673       Cr680   2.013       .  S
O674       Cr680   1.985       .  S
O674        C675   1.261       .  A
C675        O676   1.264       .  A
C675        C896   1.438       .  S
O676       Cr681   2.002       .  S
O677       Cr681   1.984       .  S
O677        C678   1.255       .  A
C678       C2028   1.436       .  S
Cr679       O682   1.777       .  S
Cr680       O682   1.775       .  S
Cr681       O682   1.774       .  S
O683       Cr701   2.013       .  S
O683        C691   1.269       .  A
O684       Cr701   1.975       .  S
O684        C685   1.258       .  A
C685        O686   1.266       .  A
C685        C726   1.443       .  S
O686       Cr702   2.017       .  S
O687       Cr702   2.007       .  S
O687        C688   1.265       .  A
C688        O689   1.259       .  A
C688        C712   1.447       .  S
O689       Cr703   1.998       .  S
O690       Cr703   1.972       .  S
O690        C691   1.262       .  A
C691       C1762   1.432       .  S
O692       Cr701   1.987       .  S
O692        C700   1.256       .  A
O693       Cr701   2.003       .  S
O693        C694   1.263       .  A
C694        O695   1.259       .  A
C694       C1064   1.439       .  S
O695       Cr702   1.984       .  S
O696       Cr702   2.007       .  S
O696        C697   1.267       .  A
C697        O698   1.262       .  A
C697       C1778   1.429       .  S
O698       Cr703   1.974       .  S
O699       Cr703   2.002       .  S
O699        C700   1.258       .  A
C700       C1538   1.439       .  S
Cr701       O704   1.775       .  S
Cr702       O704   1.777       .  S
Cr703       O704   1.777       .  S
C705        C713   1.454       .  S
C705        C706   1.405       .  A
C705        C710   1.402       .  A
C706        C707   1.405       .  A
C706        H715   1.083       .  S
C707        C708   1.403       .  A
C707        H716   1.083       .  S
C708        C711   1.454       .  S
C708        C709   1.405       .  A
C709        C710   1.404       .  A
C709        H717   1.083       .  S
C710        H718   1.083       .  S
C711        C712   1.214       .  T
C713        C714   1.214       .  T
C719        C727   1.449       .  S
C719        C720   1.402       .  A
C719        C724   1.404       .  A
C720        C721   1.402       .  A
C720        H729   1.083       .  S
C721        C722   1.403       .  A
C721        H730   1.084       .  S
C722        C725   1.449       .  S
C722        C723   1.403       .  A
C723        C724   1.403       .  A
C723        H731   1.083       .  S
C724        H732   1.084       .  S
C725        C726   1.211       .  T
C727        C728   1.212       .  T
C733        C741   1.453       .  S
C733        C734   1.402       .  A
C733        C738   1.405       .  A
C734        C735   1.404   1_545  A
C734        H743   1.083       .  S
C735        C736   1.405       .  A
C735        H744   1.083       .  S
C736        C739   1.453       .  S
C736        C737   1.402       .  A
C737        C738   1.404   1_565  A
C737        H745   1.083       .  S
C738        H746   1.083       .  S
C739        C740   1.213       .  T
C741        C742   1.213       .  T
C747        C755   1.452       .  S
C747        C748   1.404       .  A
C747        C752   1.403       .  A
C748        C749   1.406       .  A
C748        H757   1.083       .  S
C749        C750   1.405       .  A
C749        H758   1.084       .  S
C750        C753   1.452       .  S
C750        C751   1.402       .  A
C751        C752   1.402       .  A
C751        H759   1.083       .  S
C752        H760   1.084       .  S
C753        C754   1.213       .  T
C755        C756   1.213       .  T
C761        C769   1.451       .  S
C761        C762   1.403       .  A
C761        C766   1.403       .  A
C762        C763   1.404       .  A
C762        H771   1.083       .  S
C763        C764   1.404       .  A
C763        H772   1.083       .  S
C764        C767   1.451       .  S
C764        C765   1.403       .  A
C765        C766   1.403       .  A
C765        H773   1.083       .  S
C766        H774   1.083       .  S
C767        C768   1.212       .  T
C769        C770   1.212       .  T
C775        C783   1.453       .  S
C775        C776   1.403       .  A
C775        C780   1.404       .  A
C776        C777   1.402       .  A
C776        H785   1.084       .  S
C777        C778   1.402       .  A
C777        H786   1.083       .  S
C778        C781   1.452       .  S
C778        C779   1.405       .  A
C779        C780   1.406       .  A
C779        H787   1.083       .  S
C780        H788   1.083       .  S
C781        C782   1.213       .  T
C783        C784   1.213       .  T
C789        C797   1.453       .  S
C789        C790   1.404       .  A
C789        C794   1.404       .  A
C790        C791   1.406       .  A
C790        H799   1.083       .  S
C791        C792   1.405       .  A
C791        H800   1.083       .  S
C792        C795   1.453       .  S
C792        C793   1.403       .  A
C793        C794   1.402       .  A
C793        H801   1.083       .  S
C794        H802   1.084       .  S
C795        C796   1.213       .  T
C797        C798   1.214       .  T
C803        C811   1.456       .  S
C803        C804   1.404   1_554  A
C803        C808   1.404       .  A
C804        C805   1.405   1_655  A
C804        H813   1.083       .  S
C805        C806   1.404   1_456  A
C805        H814   1.083       .  S
C806        C809   1.455   1_655  S
C806        C807   1.404       .  A
C807        C808   1.405       .  A
C807        H815   1.083       .  S
C808        H816   1.083       .  S
C809        C810   1.215       .  T
C811        C812   1.215       .  T
C817        C825   1.446       .  S
C817        C818   1.403       .  A
C817        C822   1.402       .  A
C818        C819   1.402       .  A
C818        H827   1.083       .  S
C819        C820   1.402       .  A
C819        H828   1.083       .  S
C820        C823   1.446       .  S
C820        C821   1.403       .  A
C821        C822   1.401       .  A
C821        H829   1.084       .  S
C822        H830   1.083       .  S
C823        C824   1.210       .  T
C825        C826   1.210       .  T
C831        C839   1.443       .  S
C831        C832   1.401       .  A
C831        C836   1.402       .  A
C832        C833   1.400       .  A
C832        H841   1.083       .  S
C833        C834   1.402       .  A
C833        H842   1.084       .  S
C834        C837   1.443       .  S
C834        C835   1.402       .  A
C835        C836   1.401       .  A
C835        H843   1.083       .  S
C836        H844   1.084       .  S
C837        C838   1.208       .  T
C839        C840   1.208       .  T
C845        C853   1.453       .  S
C845        C846   1.403       .  A
C845        C850   1.404       .  A
C846        C847   1.403       .  A
C846        H855   1.083       .  S
C847        C848   1.403       .  A
C847        H856   1.083       .  S
C848        C851   1.454       .  S
C848        C849   1.405       .  A
C849        C850   1.406       .  A
C849        H857   1.083       .  S
C850        H858   1.083       .  S
C851        C852   1.214       .  T
C853        C854   1.214       .  T
C859        C867   1.437       .  S
C859        C860   1.400       .  A
C859        C864   1.402       .  A
C860        C861   1.398       .  A
C860        H869   1.083       .  S
C861        C862   1.402       .  A
C861        H870   1.084       .  S
C862        C865   1.438       .  S
C862        C863   1.400       .  A
C863        C864   1.398       .  A
C863        H871   1.084       .  S
C864        H872   1.084       .  S
C865        C866   1.204       .  T
C867        C868   1.204       .  T
C873        C881   1.437       .  S
C873        C874   1.400       .  A
C873        C878   1.402       .  A
C874        C875   1.396       .  A
C874        H883   1.084       .  S
C875        C876   1.400       .  A
C875        H884   1.084       .  S
C876        C879   1.437   1_455  S
C876        C877   1.401       .  A
C877        C878   1.399       .  A
C877        H885   1.083   1_455  S
C878        H886   1.083       .  S
C879        C880   1.204       .  T
C881        C882   1.204   1_455  T
C887        C895   1.443       .  S
C887        C888   1.402       .  A
C887        C892   1.401       .  A
C888        C889   1.401       .  A
C888        H897   1.084       .  S
C889        C890   1.402       .  A
C889        H898   1.083       .  S
C890        C893   1.444       .  S
C890        C891   1.402       .  A
C891        C892   1.400       .  A
C891        H899   1.084       .  S
C892        H900   1.083       .  S
C893        C894   1.208       .  T
C895        C896   1.208       .  T
C901        C909   1.450       .  S
C901        C902   1.404       .  A
C901        C906   1.402       .  A
C902        C903   1.404       .  A
C902        H911   1.084       .  S
C903        C904   1.403       .  A
C903        H912   1.083       .  S
C904        C907   1.450       .  S
C904        C905   1.403       .  A
C905        C906   1.401       .  A
C905        H913   1.084       .  S
C906        H914   1.083       .  S
C907        C908   1.212       .  T
C909        C910   1.212       .  T
C915        C923   1.433       .  S
C915        C916   1.401   1_455  A
C915        C920   1.400       .  A
C916        C917   1.397       .  A
C916        H925   1.084       .  S
C917        C918   1.400       .  A
C917        H926   1.083       .  S
C918        C921   1.433       .  S
C918        C919   1.401   1_655  A
C919        C920   1.396       .  A
C919        H927   1.084       .  S
C920        H928   1.084       .  S
C921        C922   1.202       .  T
C923        C924   1.202   1_455  T
C929        C937   1.435       .  S
C929        C930   1.402       .  A
C929        C934   1.399       .  A
C930        C931   1.397       .  A
C930        H939   1.084   1_655  S
C931        C932   1.400       .  A
C931        H940   1.084   1_655  S
C932        C935   1.435       .  S
C932        C933   1.401       .  A
C933        C934   1.397       .  A
C933        H941   1.084       .  S
C934        H942   1.084       .  S
C935        C936   1.203       .  T
C937        C938   1.203       .  T
C943        C951   1.442       .  S
C943        C944   1.402       .  A
C943        C948   1.401       .  A
C944        C945   1.399       .  A
C944        H953   1.084       .  S
C945        C946   1.401       .  A
C945        H954   1.083       .  S
C946        C949   1.441       .  S
C946        C947   1.402       .  A
C947        C948   1.400       .  A
C947        H955   1.084       .  S
C948        H956   1.083       .  S
C949        C950   1.207       .  T
C951        C952   1.207       .  T
C957        C965   1.453   1_655  S
C957        C958   1.405       .  A
C957        C962   1.403   1_655  A
C958        C959   1.405       .  A
C958        H967   1.083       .  S
C959        C960   1.403       .  A
C959        H968   1.083       .  S
C960        C963   1.452       .  S
C960        C961   1.404       .  A
C961        C962   1.403   1_655  A
C961        H969   1.083   1_655  S
C962        H970   1.083       .  S
C963        C964   1.213       .  T
C965        C966   1.213       .  T
C971        C979   1.446       .  S
C971        C972   1.403       .  A
C971        C976   1.402       .  A
C972        C973   1.403       .  A
C972        H981   1.084       .  S
C973        C974   1.403       .  A
C973        H982   1.083       .  S
C974        C977   1.446       .  S
C974        C975   1.402       .  A
C975        C976   1.400       .  A
C975        H983   1.084       .  S
C976        H984   1.083       .  S
C977        C978   1.210       .  T
C979        C980   1.210       .  T
C985        C993   1.452       .  S
C985        C986   1.403       .  A
C985        C990   1.404       .  A
C986        C987   1.403       .  A
C986        H995   1.083       .  S
C987        C988   1.404       .  A
C987        H996   1.084       .  S
C988        C991   1.452       .  S
C988        C989   1.403       .  A
C989        C990   1.404       .  A
C989        H997   1.083       .  S
C990        H998   1.084       .  S
C991        C992   1.213       .  T
C993        C994   1.213       .  T
C999       C1007   1.440       .  S
C999       C1000   1.401       .  A
C999       C1004   1.402       .  A
C1000      C1001   1.398       .  A
C1000      H1009   1.083       .  S
C1001      C1002   1.401       .  A
C1001      H1010   1.084       .  S
C1002      C1005   1.440       .  S
C1002      C1003   1.402       .  A
C1003      C1004   1.401       .  A
C1003      H1011   1.083       .  S
C1004      H1012   1.084       .  S
C1005      C1006   1.206       .  T
C1007      C1008   1.206       .  T
C1013      C1021   1.454       .  S
C1013      C1014   1.406       .  A
C1013      C1018   1.402       .  A
C1014      C1015   1.405       .  A
C1014      H1023   1.083       .  S
C1015      C1016   1.403       .  A
C1015      H1024   1.083       .  S
C1016      C1019   1.454       .  S
C1016      C1017   1.405       .  A
C1017      C1018   1.404       .  A
C1017      H1025   1.083       .  S
C1018      H1026   1.083       .  S
C1019      C1020   1.214       .  T
C1021      C1022   1.214       .  T
C1027      C1035   1.435       .  S
C1027      C1028   1.400       .  A
C1027      C1032   1.401       .  A
C1028      C1029   1.398       .  A
C1028      H1037   1.083       .  S
C1029      C1030   1.402       .  A
C1029      H1038   1.084       .  S
C1030      C1033   1.435       .  S
C1030      C1031   1.399       .  A
C1031      C1032   1.396       .  A
C1031      H1039   1.084       .  S
C1032      H1040   1.084       .  S
C1033      C1034   1.203       .  T
C1035      C1036   1.203       .  T
C1041      C1049   1.435       .  S
C1041      C1042   1.402       .  A
C1041      C1046   1.399       .  A
C1042      C1043   1.398       .  A
C1042      H1051   1.084       .  S
C1043      C1044   1.400       .  A
C1043      H1052   1.084       .  S
C1044      C1047   1.435       .  S
C1044      C1045   1.401       .  A
C1045      C1046   1.396       .  A
C1045      H1053   1.084       .  S
C1046      H1054   1.084       .  S
C1047      C1048   1.203       .  T
C1049      C1050   1.203       .  T
C1055      C1063   1.444       .  S
C1055      C1056   1.402       .  A
C1055      C1060   1.402       .  A
C1056      C1057   1.399       .  A
C1056      H1065   1.084       .  S
C1057      C1058   1.401       .  A
C1057      H1066   1.083       .  S
C1058      C1061   1.443       .  S
C1058      C1059   1.403       .  A
C1059      C1060   1.402       .  A
C1059      H1067   1.084       .  S
C1060      H1068   1.083       .  S
C1061      C1062   1.208       .  T
C1063      C1064   1.208       .  T
C1069      C1077   1.449       .  S
C1069      C1070   1.402       .  A
C1069      C1074   1.404       .  A
C1070      C1071   1.403       .  A
C1070      H1079   1.083       .  S
C1071      C1072   1.404       .  A
C1071      H1080   1.084       .  S
C1072      C1075   1.449       .  S
C1072      C1073   1.402       .  A
C1073      C1074   1.402       .  A
C1073      H1081   1.083       .  S
C1074      H1082   1.084       .  S
C1075      C1076   1.211       .  T
C1077      C1078   1.211       .  T
C1083      C1091   1.434       .  S
C1083      C1084   1.400       .  A
C1083      C1088   1.400       .  A
C1084      C1085   1.399       .  A
C1084      H1093   1.083       .  S
C1085      C1086   1.402       .  A
C1085      H1094   1.084       .  S
C1086      C1089   1.434       .  S
C1086      C1087   1.398       .  A
C1087      C1088   1.395       .  A
C1087      H1095   1.084       .  S
C1088      H1096   1.084       .  S
C1089      C1090   1.202       .  T
C1091      C1092   1.202       .  T
C1097      C1105   1.433       .  S
C1097      C1098   1.400       .  A
C1097      C1102   1.401       .  A
C1098      C1099   1.396       .  A
C1098      H1107   1.084       .  S
C1099      C1100   1.401       .  A
C1099      H1108   1.084       .  S
C1100      C1103   1.434       .  S
C1100      C1101   1.400       .  A
C1101      C1102   1.397       .  A
C1101      H1109   1.084       .  S
C1102      H1110   1.083       .  S
C1103      C1104   1.202       .  T
C1105      C1106   1.202       .  T
C1111      C1119   1.438       .  S
C1111      C1112   1.401       .  A
C1111      C1116   1.401       .  A
C1112      C1113   1.397       .  A
C1112      H1121   1.084       .  S
C1113      C1114   1.400       .  A
C1113      H1122   1.083       .  S
C1114      C1117   1.438       .  S
C1114      C1115   1.402       .  A
C1115      C1116   1.400       .  A
C1115      H1123   1.084       .  S
C1116      H1124   1.083       .  S
C1117      C1118   1.205       .  T
C1119      C1120   1.205       .  T
C1125      C1133   1.448       .  S
C1125      C1126   1.402       .  A
C1125      C1130   1.404       .  A
C1126      C1127   1.402       .  A
C1126      H1135   1.083       .  S
C1127      C1128   1.403       .  A
C1127      H1136   1.084       .  S
C1128      C1131   1.448       .  S
C1128      C1129   1.402       .  A
C1129      C1130   1.403       .  A
C1129      H1137   1.083       .  S
C1130      H1138   1.084       .  S
C1131      C1132   1.211       .  T
C1133      C1134   1.210       .  T
C1139      C1147   1.450       .  S
C1139      C1140   1.403   1_554  A
C1139      C1144   1.403       .  A
C1140      C1141   1.404   1_545  A
C1140      H1149   1.083       .  S
C1141      C1142   1.404   1_556  A
C1141      H1150   1.083       .  S
C1142      C1145   1.450       .  S
C1142      C1143   1.402       .  A
C1143      C1144   1.402   1_565  A
C1143      H1151   1.083       .  S
C1144      H1152   1.083       .  S
C1145      C1146   1.212       .  T
C1147      C1148   1.212       .  T
C1153      C1161   1.436       .  S
C1153      C1154   1.402       .  A
C1153      C1158   1.400       .  A
C1154      C1155   1.398   1_554  A
C1154      H1163   1.084       .  S
C1155      C1156   1.400       .  A
C1155      H1164   1.083       .  S
C1156      C1159   1.436       .  S
C1156      C1157   1.401       .  A
C1157      C1158   1.397   1_556  A
C1157      H1165   1.084       .  S
C1158      H1166   1.084       .  S
C1159      C1160   1.203       .  T
C1161      C1162   1.203       .  T
C1167      C1175   1.435       .  S
C1167      C1168   1.400       .  A
C1167      C1172   1.400       .  A
C1168      C1169   1.396       .  A
C1168      H1177   1.084       .  S
C1169      C1170   1.399       .  A
C1169      H1178   1.084       .  S
C1170      C1173   1.435       .  S
C1170      C1171   1.402       .  A
C1171      C1172   1.399       .  A
C1171      H1179   1.084       .  S
C1172      H1180   1.083       .  S
C1173      C1174   1.203       .  T
C1175      C1176   1.203       .  T
C1181      C1189   1.443       .  S
C1181      C1182   1.402       .  A
C1181      C1186   1.402       .  A
C1182      C1183   1.399       .  A
C1182      H1191   1.084       .  S
C1183      C1184   1.401       .  A
C1183      H1192   1.083       .  S
C1184      C1187   1.443       .  S
C1184      C1185   1.403       .  A
C1185      C1186   1.401       .  A
C1185      H1193   1.083       .  S
C1186      H1194   1.083       .  S
C1187      C1188   1.208       .  T
C1189      C1190   1.208       .  T
C1195      C1203   1.434       .  S
C1195      C1196   1.400       .  A
C1195      C1200   1.401       .  A
C1196      C1197   1.395       .  A
C1196      H1205   1.084       .  S
C1197      C1198   1.400       .  A
C1197      H1206   1.084       .  S
C1198      C1201   1.434       .  S
C1198      C1199   1.401       .  A
C1199      C1200   1.399       .  A
C1199      H1207   1.083       .  S
C1200      H1208   1.083       .  S
C1201      C1202   1.202       .  T
C1203      C1204   1.203       .  T
C1209      C1217   1.434       .  S
C1209      C1210   1.401       .  A
C1209      C1214   1.400       .  A
C1210      C1211   1.396       .  A
C1210      H1219   1.084       .  S
C1211      C1212   1.399   1_554  A
C1211      H1220   1.084   1_554  S
C1212      C1215   1.435       .  S
C1212      C1213   1.402   1_556  A
C1213      C1214   1.398       .  A
C1213      H1221   1.084   1_554  S
C1214      H1222   1.083       .  S
C1215      C1216   1.203       .  T
C1217      C1218   1.202       .  T
C1223      C1231   1.439       .  S
C1223      C1224   1.400       .  A
C1223      C1228   1.402       .  A
C1224      C1225   1.398       .  A
C1224      H1233   1.083       .  S
C1225      C1226   1.401       .  A
C1225      H1234   1.084       .  S
C1226      C1229   1.439       .  S
C1226      C1227   1.401       .  A
C1227      C1228   1.400       .  A
C1227      H1235   1.083       .  S
C1228      H1236   1.083       .  S
C1229      C1230   1.206       .  T
C1231      C1232   1.205       .  T
C1237      C1245   1.454       .  S
C1237      C1238   1.405       .  A
C1237      C1242   1.403       .  A
C1238      C1239   1.404       .  A
C1238      H1247   1.083       .  S
C1239      C1240   1.403       .  A
C1239      H1248   1.083       .  S
C1240      C1243   1.454       .  S
C1240      C1241   1.405       .  A
C1241      C1242   1.405       .  A
C1241      H1249   1.083       .  S
C1242      H1250   1.083       .  S
C1243      C1244   1.214       .  T
C1245      C1246   1.214       .  T
C1251      C1259   1.451       .  S
C1251      C1252   1.405       .  A
C1251      C1256   1.402       .  A
C1252      C1253   1.407       .  A
C1252      H1261   1.083       .  S
C1253      C1254   1.404       .  A
C1253      H1262   1.083       .  S
C1254      C1257   1.451       .  S
C1254      C1255   1.402       .  A
C1255      C1256   1.400       .  A
C1255      H1263   1.084       .  S
C1256      H1264   1.084       .  S
C1257      C1258   1.213       .  T
C1259      C1260   1.213       .  T
C1265      C1273   1.441       .  S
C1265      C1266   1.403       .  A
C1265      C1270   1.401       .  A
C1266      C1267   1.401       .  A
C1266      H1275   1.084       .  S
C1267      C1268   1.402       .  A
C1267      H1276   1.083       .  S
C1268      C1271   1.441       .  S
C1268      C1269   1.401       .  A
C1269      C1270   1.398       .  A
C1269      H1277   1.084       .  S
C1270      H1278   1.083       .  S
C1271      C1272   1.207       .  T
C1273      C1274   1.207       .  T
C1279      C1287   1.440       .  S
C1279      C1280   1.402       .  A
C1279      C1284   1.401       .  A
C1280      C1281   1.399       .  A
C1280      H1289   1.083       .  S
C1281      C1282   1.401       .  A
C1281      H1290   1.084       .  S
C1282      C1285   1.440       .  S
C1282      C1283   1.402       .  A
C1283      C1284   1.399       .  A
C1283      H1291   1.083       .  S
C1284      H1292   1.084       .  S
C1285      C1286   1.206       .  T
C1287      C1288   1.206       .  T
C1293      C1301   1.452       .  S
C1293      C1294   1.404       .  A
C1293      C1298   1.403       .  A
C1294      C1295   1.404       .  A
C1294      H1303   1.083       .  S
C1295      C1296   1.403       .  A
C1295      H1304   1.083       .  S
C1296      C1299   1.452       .  S
C1296      C1297   1.404       .  A
C1297      C1298   1.404       .  A
C1297      H1305   1.083       .  S
C1298      H1306   1.083       .  S
C1299      C1300   1.213       .  T
C1301      C1302   1.213       .  T
C1307      C1315   1.450       .  S
C1307      C1308   1.404       .  A
C1307      C1312   1.403       .  A
C1308      C1309   1.402       .  A
C1308      H1317   1.084       .  S
C1309      C1310   1.402       .  A
C1309      H1318   1.083       .  S
C1310      C1313   1.450       .  S
C1310      C1311   1.404       .  A
C1311      C1312   1.404       .  A
C1311      H1319   1.084       .  S
C1312      H1320   1.083       .  S
C1313      C1314   1.212       .  T
C1315      C1316   1.212       .  T
C1321      C1329   1.439       .  S
C1321      C1322   1.400       .  A
C1321      C1326   1.402       .  A
C1322      C1323   1.398       .  A
C1322      H1331   1.083       .  S
C1323      C1324   1.401       .  A
C1323      H1332   1.084       .  S
C1324      C1327   1.438       .  S
C1324      C1325   1.401       .  A
C1325      C1326   1.399       .  A
C1325      H1333   1.083       .  S
C1326      H1334   1.084       .  S
C1327      C1328   1.205       .  T
C1329      C1330   1.205       .  T
C1335      C1343   1.444       .  S
C1335      C1336   1.402       .  A
C1335      C1340   1.403       .  A
C1336      C1337   1.399       .  A
C1336      H1345   1.083       .  S
C1337      C1338   1.402       .  A
C1337      H1346   1.084       .  S
C1338      C1341   1.444       .  S
C1338      C1339   1.402       .  A
C1339      C1340   1.402       .  A
C1339      H1347   1.083       .  S
C1340      H1348   1.084       .  S
C1341      C1342   1.208       .  T
C1343      C1344   1.208       .  T
C1349      C1357   1.450       .  S
C1349      C1350   1.404   1_554  A
C1349      C1354   1.403       .  A
C1350      C1351   1.404   1_545  A
C1350      H1359   1.083       .  S
C1351      C1352   1.403   1_556  A
C1351      H1360   1.083       .  S
C1352      C1355   1.452   1_655  S
C1352      C1353   1.404       .  A
C1353      C1354   1.403   1_565  A
C1353      H1361   1.083   1_655  S
C1354      H1362   1.083       .  S
C1355      C1356   1.213       .  T
C1357      C1358   1.212       .  T
C1363      C1371   1.440       .  S
C1363      C1364   1.402       .  A
C1363      C1368   1.400       .  A
C1364      C1365   1.399       .  A
C1364      H1373   1.084       .  S
C1365      C1366   1.401   1_554  A
C1365      H1374   1.083       .  S
C1366      C1369   1.439       .  S
C1366      C1367   1.402   1_556  A
C1367      C1368   1.398       .  A
C1367      H1375   1.084   1_554  S
C1368      H1376   1.083       .  S
C1369      C1370   1.205       .  T
C1371      C1372   1.206       .  T
C1377      C1385   1.436       .  S
C1377      C1378   1.400       .  A
C1377      C1382   1.401       .  A
C1378      C1379   1.398       .  A
C1378      H1387   1.084       .  S
C1379      C1380   1.402       .  A
C1379      H1388   1.084       .  S
C1380      C1383   1.436       .  S
C1380      C1381   1.399       .  A
C1381      C1382   1.397       .  A
C1381      H1389   1.084       .  S
C1382      H1390   1.084       .  S
C1383      C1384   1.203       .  T
C1385      C1386   1.204       .  T
C1391      C1399   1.443       .  S
C1391      C1392   1.401       .  A
C1391      C1396   1.403       .  A
C1392      C1393   1.399       .  A
C1392      H1401   1.083       .  S
C1393      C1394   1.402       .  A
C1393      H1402   1.084       .  S
C1394      C1397   1.443       .  S
C1394      C1395   1.402       .  A
C1395      C1396   1.401       .  A
C1395      H1403   1.083       .  S
C1396      H1404   1.084       .  S
C1397      C1398   1.208       .  T
C1399      C1400   1.208       .  T
C1405      C1413   1.450       .  S
C1405      C1406   1.402       .  A
C1405      C1410   1.404       .  A
C1406      C1407   1.403       .  A
C1406      H1415   1.083       .  S
C1407      C1408   1.404       .  A
C1407      H1416   1.084       .  S
C1408      C1411   1.450       .  S
C1408      C1409   1.403       .  A
C1409      C1410   1.404       .  A
C1409      H1417   1.083       .  S
C1410      H1418   1.084       .  S
C1411      C1412   1.212       .  T
C1413      C1414   1.212       .  T
C1419      C1427   1.436       .  S
C1419      C1420   1.399       .  A
C1419      C1424   1.402       .  A
C1420      C1421   1.397   1_554  A
C1420      H1429   1.083       .  S
C1421      C1422   1.401       .  A
C1421      H1430   1.084       .  S
C1422      C1425   1.436       .  S
C1422      C1423   1.400       .  A
C1423      C1424   1.398   1_556  A
C1423      H1431   1.083       .  S
C1424      H1432   1.084       .  S
C1425      C1426   1.204       .  T
C1427      C1428   1.203       .  T
C1433      C1441   1.435       .  S
C1433      C1434   1.401       .  A
C1433      C1438   1.400       .  A
C1434      C1435   1.397       .  A
C1434      H1443   1.084       .  S
C1435      C1436   1.400       .  A
C1435      H1444   1.084       .  S
C1436      C1439   1.435       .  S
C1436      C1437   1.401       .  A
C1437      C1438   1.398       .  A
C1437      H1445   1.084       .  S
C1438      H1446   1.083       .  S
C1439      C1440   1.203       .  T
C1441      C1442   1.203       .  T
C1447      C1455   1.440       .  S
C1447      C1448   1.401       .  A
C1447      C1452   1.401       .  A
C1448      C1449   1.400       .  A
C1448      H1457   1.083       .  S
C1449      C1450   1.402       .  A
C1449      H1458   1.084       .  S
C1450      C1453   1.440       .  S
C1450      C1451   1.401       .  A
C1451      C1452   1.399       .  A
C1451      H1459   1.083       .  S
C1452      H1460   1.084       .  S
C1453      C1454   1.206       .  T
C1455      C1456   1.206       .  T
C1461      C1469   1.451       .  S
C1461      C1462   1.404       .  A
C1461      C1466   1.403       .  A
C1462      C1463   1.402       .  A
C1462      H1471   1.084       .  S
C1463      C1464   1.402       .  A
C1463      H1472   1.083       .  S
C1464      C1467   1.450       .  S
C1464      C1465   1.404       .  A
C1465      C1466   1.404       .  A
C1465      H1473   1.084       .  S
C1466      H1474   1.083       .  S
C1467      C1468   1.212       .  T
C1469      C1470   1.212       .  T
C1475      C1483   1.453       .  S
C1475      C1476   1.403       .  A
C1475      C1480   1.404       .  A
C1476      C1477   1.404       .  A
C1476      H1485   1.083       .  S
C1477      C1478   1.404       .  A
C1477      H1486   1.083       .  S
C1478      C1481   1.453       .  S
C1478      C1479   1.403       .  A
C1479      C1480   1.404       .  A
C1479      H1487   1.083       .  S
C1480      H1488   1.083       .  S
C1481      C1482   1.213       .  T
C1483      C1484   1.214       .  T
C1489      C1497   1.441       .  S
C1489      C1490   1.402       .  A
C1489      C1494   1.401       .  A
C1490      C1491   1.400       .  A
C1490      H1499   1.084       .  S
C1491      C1492   1.401       .  A
C1491      H1500   1.083       .  S
C1492      C1495   1.441       .  S
C1492      C1493   1.402       .  A
C1493      C1494   1.399       .  A
C1493      H1501   1.084       .  S
C1494      H1502   1.083       .  S
C1495      C1496   1.207       .  T
C1497      C1498   1.207       .  T
C1503      C1511   1.437       .  S
C1503      C1504   1.400       .  A
C1503      C1508   1.402       .  A
C1504      C1505   1.399       .  A
C1504      H1513   1.083       .  S
C1505      C1506   1.402       .  A
C1505      H1514   1.084       .  S
C1506      C1509   1.437       .  S
C1506      C1507   1.400       .  A
C1507      C1508   1.397       .  A
C1507      H1515   1.084       .  S
C1508      H1516   1.084       .  S
C1509      C1510   1.204       .  T
C1511      C1512   1.204       .  T
C1517      C1525   1.436       .  S
C1517      C1518   1.401       .  A
C1517      C1522   1.401       .  A
C1518      C1519   1.399       .  A
C1518      H1527   1.083       .  S
C1519      C1520   1.402       .  A
C1519      H1528   1.084       .  S
C1520      C1523   1.436       .  S
C1520      C1521   1.399       .  A
C1521      C1522   1.396       .  A
C1521      H1529   1.084       .  S
C1522      H1530   1.084       .  S
C1523      C1524   1.204       .  T
C1525      C1526   1.203       .  T
C1531      C1539   1.444       .  S
C1531      C1532   1.403       .  A
C1531      C1536   1.401       .  A
C1532      C1533   1.401       .  A
C1532      H1541   1.083       .  S
C1533      C1534   1.402       .  A
C1533      H1542   1.083       .  S
C1534      C1537   1.444       .  S
C1534      C1535   1.402       .  A
C1535      C1536   1.400       .  A
C1535      H1543   1.083       .  S
C1536      H1544   1.083       .  S
C1537      C1538   1.208       .  T
C1539      C1540   1.208       .  T
C1545      C1553   1.445       .  S
C1545      C1546   1.402       .  A
C1545      C1550   1.402       .  A
C1546      C1547   1.400       .  A
C1546      H1555   1.084       .  S
C1547      C1548   1.402       .  A
C1547      H1556   1.083       .  S
C1548      C1551   1.445       .  S
C1548      C1549   1.403       .  A
C1549      C1550   1.402       .  A
C1549      H1557   1.084       .  S
C1550      H1558   1.083       .  S
C1551      C1552   1.209       .  T
C1553      C1554   1.209       .  T
C1559      C1567   1.432       .  S
C1559      C1560   1.399       .  A
C1559      C1564   1.401       .  A
C1560      C1561   1.396       .  A
C1560      H1569   1.084       .  S
C1561      C1562   1.401       .  A
C1561      H1570   1.084       .  S
C1562      C1565   1.432       .  S
C1562      C1563   1.399       .  A
C1563      C1564   1.396       .  A
C1563      H1571   1.084       .  S
C1564      H1572   1.084       .  S
C1565      C1566   1.201       .  T
C1567      C1568   1.201       .  T
C1573      C1581   1.435       .  S
C1573      C1574   1.402       .  A
C1573      C1578   1.399       .  A
C1574      C1575   1.397       .  A
C1574      H1583   1.084       .  S
C1575      C1576   1.400       .  A
C1575      H1584   1.084       .  S
C1576      C1579   1.435       .  S
C1576      C1577   1.401       .  A
C1577      C1578   1.397       .  A
C1577      H1585   1.084       .  S
C1578      H1586   1.083       .  S
C1579      C1580   1.203       .  T
C1581      C1582   1.203       .  T
C1587      C1595   1.443       .  S
C1587      C1588   1.401       .  A
C1587      C1592   1.403       .  A
C1588      C1589   1.400       .  A
C1588      H1597   1.083       .  S
C1589      C1590   1.402       .  A
C1589      H1598   1.084       .  S
C1590      C1593   1.443       .  S
C1590      C1591   1.402       .  A
C1591      C1592   1.401       .  A
C1591      H1599   1.083       .  S
C1592      H1600   1.084       .  S
C1593      C1594   1.208       .  T
C1595      C1596   1.208       .  T
C1601      C1609   1.454       .  S
C1601      C1602   1.403       .  A
C1601      C1606   1.404   1_554  A
C1602      C1603   1.404       .  A
C1602      H1611   1.083       .  S
C1603      C1604   1.403       .  A
C1603      H1612   1.083       .  S
C1604      C1607   1.454       .  S
C1604      C1605   1.405   1_554  A
C1605      C1606   1.406       .  A
C1605      H1613   1.083       .  S
C1606      H1614   1.083       .  S
C1607      C1608   1.214       .  T
C1609      C1610   1.214       .  T
C1615      C1623   1.438       .  S
C1615      C1616   1.401   1_556  A
C1615      C1620   1.401   1_556  A
C1616      C1617   1.399       .  A
C1616      H1625   1.083       .  S
C1617      C1618   1.402       .  A
C1617      H1626   1.084       .  S
C1618      C1621   1.438       .  S
C1618      C1619   1.400       .  A
C1619      C1620   1.398       .  A
C1619      H1627   1.084       .  S
C1620      H1628   1.084   1_554  S
C1621      C1622   1.205       .  T
C1623      C1624   1.205       .  T
C1629      C1637   1.437       .  S
C1629      C1630   1.400       .  A
C1629      C1634   1.402       .  A
C1630      C1631   1.398       .  A
C1630      H1639   1.083       .  S
C1631      C1632   1.401       .  A
C1631      H1640   1.084       .  S
C1632      C1635   1.437       .  S
C1632      C1633   1.400       .  A
C1633      C1634   1.398       .  A
C1633      H1641   1.083       .  S
C1634      H1642   1.084       .  S
C1635      C1636   1.204       .  T
C1637      C1638   1.204       .  T
C1643      C1651   1.443       .  S
C1643      C1644   1.402       .  A
C1643      C1648   1.402       .  A
C1644      C1645   1.399       .  A
C1644      H1653   1.083       .  S
C1645      C1646   1.402       .  A
C1645      H1654   1.084       .  S
C1646      C1649   1.444       .  S
C1646      C1647   1.402       .  A
C1647      C1648   1.401       .  A
C1647      H1655   1.083       .  S
C1648      H1656   1.083       .  S
C1649      C1650   1.208       .  T
C1651      C1652   1.208       .  T
C1657      C1665   1.450       .  S
C1657      C1658   1.404       .  A
C1657      C1662   1.403       .  A
C1658      C1659   1.403       .  A
C1658      H1667   1.084       .  S
C1659      C1660   1.402       .  A
C1659      H1668   1.083       .  S
C1660      C1663   1.450       .  S
C1660      C1661   1.404       .  A
C1661      C1662   1.403       .  A
C1661      H1669   1.084       .  S
C1662      H1670   1.083       .  S
C1663      C1664   1.212       .  T
C1665      C1666   1.212       .  T
C1671      C1679   1.439       .  S
C1671      C1672   1.402       .  A
C1671      C1676   1.401       .  A
C1672      C1673   1.399       .  A
C1672      H1681   1.084       .  S
C1673      C1674   1.401       .  A
C1673      H1682   1.083       .  S
C1674      C1677   1.439       .  S
C1674      C1675   1.402       .  A
C1675      C1676   1.399       .  A
C1675      H1683   1.084       .  S
C1676      H1684   1.083       .  S
C1677      C1678   1.206       .  T
C1679      C1680   1.206       .  T
C1685      C1693   1.444       .  S
C1685      C1686   1.402       .  A
C1685      C1690   1.402       .  A
C1686      C1687   1.400       .  A
C1686      H1695   1.083       .  S
C1687      C1688   1.402       .  A
C1687      H1696   1.084       .  S
C1688      C1691   1.444       .  S
C1688      C1689   1.402       .  A
C1689      C1690   1.402       .  A
C1689      H1697   1.083       .  S
C1690      H1698   1.083       .  S
C1691      C1692   1.209       .  T
C1693      C1694   1.208       .  T
C1699      C1707   1.437       .  S
C1699      C1700   1.401       .  A
C1699      C1704   1.401       .  A
C1700      C1701   1.399       .  A
C1700      H1709   1.083       .  S
C1701      C1702   1.403       .  A
C1701      H1710   1.084       .  S
C1702      C1705   1.437       .  S
C1702      C1703   1.399       .  A
C1703      C1704   1.397       .  A
C1703      H1711   1.083       .  S
C1704      H1712   1.084       .  S
C1705      C1706   1.204       .  T
C1707      C1708   1.204       .  T
C1713      C1721   1.435       .  S
C1713      C1714   1.401       .  A
C1713      C1718   1.400       .  A
C1714      C1715   1.397   1_556  A
C1714      H1723   1.084       .  S
C1715      C1716   1.399       .  A
C1715      H1724   1.084       .  S
C1716      C1719   1.435       .  S
C1716      C1717   1.402       .  A
C1717      C1718   1.398   1_554  A
C1717      H1725   1.084       .  S
C1718      H1726   1.084       .  S
C1719      C1720   1.203       .  T
C1721      C1722   1.203       .  T
C1727      C1735   1.442       .  S
C1727      C1728   1.403       .  A
C1727      C1732   1.400       .  A
C1728      C1729   1.401       .  A
C1728      H1737   1.084       .  S
C1729      C1730   1.402       .  A
C1729      H1738   1.083       .  S
C1730      C1733   1.442       .  S
C1730      C1731   1.401       .  A
C1731      C1732   1.398       .  A
C1731      H1739   1.084       .  S
C1732      H1740   1.083       .  S
C1733      C1734   1.207       .  T
C1735      C1736   1.207       .  T
C1741      C1749   1.453       .  S
C1741      C1742   1.405       .  A
C1741      C1746   1.402       .  A
C1742      C1743   1.403       .  A
C1742      H1751   1.083       .  S
C1743      C1744   1.401       .  A
C1743      H1752   1.083       .  S
C1744      C1747   1.452       .  S
C1744      C1745   1.406       .  A
C1745      C1746   1.405       .  A
C1745      H1753   1.083       .  S
C1746      H1754   1.083       .  S
C1747      C1748   1.213       .  T
C1749      C1750   1.213       .  T
C1755      C1763   1.437       .  S
C1755      C1756   1.402       .  A
C1755      C1760   1.400       .  A
C1756      C1757   1.399       .  A
C1756      H1765   1.084       .  S
C1757      C1758   1.400       .  A
C1757      H1766   1.083       .  S
C1758      C1761   1.437       .  S
C1758      C1759   1.401       .  A
C1759      C1760   1.397       .  A
C1759      H1767   1.084       .  S
C1760      H1768   1.083       .  S
C1761      C1762   1.204       .  T
C1763      C1764   1.204       .  T
C1769      C1777   1.435       .  S
C1769      C1770   1.400       .  A
C1769      C1774   1.400       .  A
C1770      C1771   1.398   1_554  A
C1770      H1779   1.083       .  S
C1771      C1772   1.401       .  A
C1771      H1780   1.084       .  S
C1772      C1775   1.434       .  S
C1772      C1773   1.400       .  A
C1773      C1774   1.396   1_556  A
C1773      H1781   1.084       .  S
C1774      H1782   1.084       .  S
C1775      C1776   1.203       .  T
C1777      C1778   1.203       .  T
C1783      C1791   1.436       .  S
C1783      C1784   1.399       .  A
C1783      C1788   1.402       .  A
C1784      C1785   1.395       .  A
C1784      H1793   1.084       .  S
C1785      C1786   1.400       .  A
C1785      H1794   1.084       .  S
C1786      C1789   1.436       .  S
C1786      C1787   1.401       .  A
C1787      C1788   1.400       .  A
C1787      H1795   1.083       .  S
C1788      H1796   1.083       .  S
C1789      C1790   1.204       .  T
C1791      C1792   1.204       .  T
C1797      C1805   1.450       .  S
C1797      C1798   1.402       .  A
C1797      C1802   1.404       .  A
C1798      C1799   1.403       .  A
C1798      H1807   1.083       .  S
C1799      C1800   1.404       .  A
C1799      H1808   1.083       .  S
C1800      C1803   1.450       .  S
C1800      C1801   1.402       .  A
C1801      C1802   1.403       .  A
C1801      H1809   1.083       .  S
C1802      H1810   1.083       .  S
C1803      C1804   1.212       .  T
C1805      C1806   1.212       .  T
C1811      C1819   1.442       .  S
C1811      C1812   1.402       .  A
C1811      C1816   1.402       .  A
C1812      C1813   1.399       .  A
C1812      H1821   1.084       .  S
C1813      C1814   1.401       .  A
C1813      H1822   1.083       .  S
C1814      C1817   1.442       .  S
C1814      C1815   1.402       .  A
C1815      C1816   1.401       .  A
C1815      H1823   1.084       .  S
C1816      H1824   1.083       .  S
C1817      C1818   1.207       .  T
C1819      C1820   1.207       .  T
C1825      C1833   1.436       .  S
C1825      C1826   1.402       .  A
C1825      C1830   1.400       .  A
C1826      C1827   1.398       .  A
C1826      H1835   1.084       .  S
C1827      C1828   1.400   1_554  A
C1827      H1836   1.083       .  S
C1828      C1831   1.436       .  S
C1828      C1829   1.401   1_556  A
C1829      C1830   1.397       .  A
C1829      H1837   1.084   1_554  S
C1830      H1838   1.083       .  S
C1831      C1832   1.203       .  T
C1833      C1834   1.203       .  T
C1839      C1847   1.437       .  S
C1839      C1840   1.400       .  A
C1839      C1844   1.402       .  A
C1840      C1841   1.398       .  A
C1840      H1849   1.083       .  S
C1841      C1842   1.402       .  A
C1841      H1850   1.084       .  S
C1842      C1845   1.436       .  S
C1842      C1843   1.400       .  A
C1843      C1844   1.398       .  A
C1843      H1851   1.083       .  S
C1844      H1852   1.084       .  S
C1845      C1846   1.204       .  T
C1847      C1848   1.204       .  T
C1853      C1861   1.441       .  S
C1853      C1854   1.401       .  A
C1853      C1858   1.403       .  A
C1854      C1855   1.399       .  A
C1854      H1863   1.083       .  S
C1855      C1856   1.402       .  A
C1855      H1864   1.084       .  S
C1856      C1859   1.441       .  S
C1856      C1857   1.402       .  A
C1857      C1858   1.401       .  A
C1857      H1865   1.083       .  S
C1858      H1866   1.084       .  S
C1859      C1860   1.207       .  T
C1861      C1862   1.207       .  T
C1867      C1875   1.439       .  S
C1867      C1868   1.400       .  A
C1867      C1872   1.402       .  A
C1868      C1869   1.397       .  A
C1868      H1877   1.083       .  S
C1869      C1870   1.401       .  A
C1869      H1878   1.084       .  S
C1870      C1873   1.438       .  S
C1870      C1871   1.401       .  A
C1871      C1872   1.400       .  A
C1871      H1879   1.083       .  S
C1872      H1880   1.084       .  S
C1873      C1874   1.205       .  T
C1875      C1876   1.205       .  T
C1881      C1889   1.451       .  S
C1881      C1882   1.402       .  A
C1881      C1886   1.405       .  A
C1882      C1883   1.403       .  A
C1882      H1891   1.083       .  S
C1883      C1884   1.404       .  A
C1883      H1892   1.083       .  S
C1884      C1887   1.451       .  S
C1884      C1885   1.402       .  A
C1885      C1886   1.404       .  A
C1885      H1893   1.083       .  S
C1886      H1894   1.083       .  S
C1887      C1888   1.213       .  T
C1889      C1890   1.212       .  T
C1895      C1903   1.442       .  S
C1895      C1896   1.403       .  A
C1895      C1900   1.401       .  A
C1896      C1897   1.402       .  A
C1896      H1905   1.083       .  S
C1897      C1898   1.403       .  A
C1897      H1906   1.083       .  S
C1898      C1901   1.443       .  S
C1898      C1899   1.400       .  A
C1899      C1900   1.398       .  A
C1899      H1907   1.083       .  S
C1900      H1908   1.084       .  S
C1901      C1902   1.208       .  T
C1903      C1904   1.208       .  T
C1909      C1917   1.438       .  S
C1909      C1910   1.400       .  A
C1909      C1914   1.402       .  A
C1910      C1911   1.398       .  A
C1910      H1919   1.083       .  S
C1911      C1912   1.401       .  A
C1911      H1920   1.084       .  S
C1912      C1915   1.438       .  S
C1912      C1913   1.400       .  A
C1913      C1914   1.399       .  A
C1913      H1921   1.083       .  S
C1914      H1922   1.084       .  S
C1915      C1916   1.205       .  T
C1917      C1918   1.205       .  T
C1923      C1931   1.437       .  S
C1923      C1924   1.402       .  A
C1923      C1928   1.400   1_455  A
C1924      C1925   1.398       .  A
C1924      H1933   1.084       .  S
C1925      C1926   1.400       .  A
C1925      H1934   1.083       .  S
C1926      C1929   1.437       .  S
C1926      C1927   1.402   1_455  A
C1927      C1928   1.398       .  A
C1927      H1935   1.084       .  S
C1928      H1936   1.083       .  S
C1929      C1930   1.204   1_455  T
C1931      C1932   1.204       .  T
C1937      C1945   1.450       .  S
C1937      C1938   1.402       .  A
C1937      C1942   1.404       .  A
C1938      C1939   1.403       .  A
C1938      H1947   1.083       .  S
C1939      C1940   1.404       .  A
C1939      H1948   1.084       .  S
C1940      C1943   1.450       .  S
C1940      C1941   1.402       .  A
C1941      C1942   1.403       .  A
C1941      H1949   1.083       .  S
C1942      H1950   1.084       .  S
C1943      C1944   1.212       .  T
C1945      C1946   1.212       .  T
C1951      C1959   1.441       .  S
C1951      C1952   1.402       .  A
C1951      C1956   1.401       .  A
C1952      C1953   1.400       .  A
C1952      H1961   1.084       .  S
C1953      C1954   1.401       .  A
C1953      H1962   1.083       .  S
C1954      C1957   1.441       .  S
C1954      C1955   1.402       .  A
C1955      C1956   1.399       .  A
C1955      H1963   1.084       .  S
C1956      H1964   1.083       .  S
C1957      C1958   1.207       .  T
C1959      C1960   1.207       .  T
C1965      C1973   1.441       .  S
C1965      C1966   1.401       .  A
C1965      C1970   1.402       .  A
C1966      C1967   1.399       .  A
C1966      H1975   1.083       .  S
C1967      C1968   1.402       .  A
C1967      H1976   1.084       .  S
C1968      C1971   1.441       .  S
C1968      C1969   1.401       .  A
C1969      C1970   1.400       .  A
C1969      H1977   1.083       .  S
C1970      H1978   1.084       .  S
C1971      C1972   1.207       .  T
C1973      C1974   1.207       .  T
C1979      C1987   1.434       .  S
C1979      C1980   1.399       .  A
C1979      C1984   1.402   1_655  A
C1980      C1981   1.397       .  A
C1980      H1989   1.083       .  S
C1981      C1982   1.401       .  A
C1981      H1990   1.084       .  S
C1982      C1985   1.434       .  S
C1982      C1983   1.399   1_655  A
C1983      C1984   1.397       .  A
C1983      H1991   1.083       .  S
C1984      H1992   1.084       .  S
C1985      C1986   1.202       .  T
C1987      C1988   1.203       .  T
C1993      C2001   1.437       .  S
C1993      C1994   1.401       .  A
C1993      C1998   1.401       .  A
C1994      C1995   1.399       .  A
C1994      H2003   1.083       .  S
C1995      C1996   1.402       .  A
C1995      H2004   1.084       .  S
C1996      C1999   1.437       .  S
C1996      C1997   1.400       .  A
C1997      C1998   1.396       .  A
C1997      H2005   1.084       .  S
C1998      H2006   1.084       .  S
C1999      C2000   1.204       .  T
C2001      C2002   1.204       .  T
C2007      C2015   1.450       .  S
C2007      C2008   1.403       .  A
C2007      C2012   1.403       .  A
C2008      C2009   1.403       .  A
C2008      H2017   1.083       .  S
C2009      C2010   1.404       .  A
C2009      H2018   1.084       .  S
C2010      C2013   1.450       .  S
C2010      C2011   1.402       .  A
C2011      C2012   1.403       .  A
C2011      H2019   1.083       .  S
C2012      H2020   1.084       .  S
C2013      C2014   1.212       .  T
C2015      C2016   1.212       .  T
C2021      C2029   1.442       .  S
C2021      C2022   1.401       .  A
C2021      C2026   1.402       .  A
C2022      C2023   1.400       .  A
C2022      H2031   1.083       .  S
C2023      C2024   1.402       .  A
C2023      H2032   1.084       .  S
C2024      C2027   1.442       .  S
C2024      C2025   1.401       .  A
C2025      C2026   1.399       .  A
C2025      H2033   1.083       .  S
C2026      H2034   1.084       .  S
C2027      C2028   1.207       .  T
C2029      C2030   1.207       .  T
C2035      C2043   1.450   1_655  S
C2035      C2036   1.402   1_655  A
C2035      C2040   1.404       .  A
C2036      C2037   1.404   1_445  A
C2036      H2045   1.083       .  S
C2037      C2038   1.406       .  A
C2037      H2046   1.083   1_655  S
C2038      C2041   1.450       .  S
C2038      C2039   1.401       .  A
C2039      C2040   1.402   1_565  A
C2039      H2047   1.083       .  S
C2040      H2048   1.084       .  S
C2041      C2042   1.212       .  T
C2043      C2044   1.212       .  T
