geometry optimzed in LAMMPS
_audit_creation_date              2020-12-01 
_audit_creation_method            'lammps2cif' 
_symmetry_space_group_name_H-M    'P1' 
_symmetry_Int_Tables_number       1 
_symmetry_cell_setting            triclinic 
loop_ 
_symmetry_equiv_pos_as_xyz 
  x,y,z 
_cell_length_a                    53.91006474 
_cell_length_b                    53.91898405600452 
_cell_length_c                    44.5017649740177 
_cell_angle_alpha                 89.78926586301901 
_cell_angle_beta                  89.99274729860163 
_cell_angle_gamma                 120.35087685173549 
loop_ 
_atom_site_label 
_atom_site_type_symbol 
_atom_site_fract_x 
_atom_site_fract_y 
_atom_site_fract_z 
_atom_site_charge 
O1          O  0.37803883  0.87516067  0.20983839    -0.82300
C2          C  0.33097947  0.89173923  0.31500999     0.97100
O3          O  0.35729518  0.90578980  0.30770885    -0.71400
O4          O  0.37499716  0.86895691  0.29770708    -0.75000
Al5        Al  0.37781569  0.90043520  0.27539335     1.49000
C6          C  0.37717508  0.84907058  0.28543852     0.92400
O7          O  0.31080383  0.82176636  0.25132422    -0.81200
O8          O  0.32171742  0.89255445  0.21145244    -0.74700
Al9        Al  0.34492749  0.85002800  0.23198691     1.90100
O10         O  0.28809574  0.84569834  0.24699483    -0.73800
O11         O  0.34053667  0.92632213  0.25903988    -0.73700
O12         O  0.31172347  0.87816069  0.29555266    -0.79300
O13         O  0.38428958  0.93392767  0.25510685    -0.77500
O14         O  0.34678536  0.87835499  0.25379881    -1.13700
O15         O  0.40496387  0.89977498  0.24783412    -0.72800
C16         C  0.40247181  0.89128717  0.22098992     0.97900
C17         C  0.28763370  0.82198736  0.24792002     0.94300
Al18       Al  0.31769559  0.88508132  0.25350218     1.55600
O19         O  0.36729254  0.84073522  0.25923668    -0.77500
C20         C  0.36701036  0.94313679  0.25399026     0.98400
C21         C  0.32064246  0.87495277  0.19207544     0.93300
O22         O  0.32350967  0.85388760  0.19961016    -0.82800
O23         O  0.38246137  0.88101517  0.45849717    -0.82300
C24         C  0.33153868  0.88728438  0.06573173     0.97100
O25         O  0.35813039  0.90032601  0.06005316    -0.71400
O26         O  0.37647135  0.86521757  0.04529938    -0.75000
Al27       Al  0.37987240  0.89874968  0.02716243     1.49000
C28         C  0.38073320  0.84784985  0.03050047     0.92400
O29         O  0.31519558  0.82234152  0.49584460    -0.81200
O30         O  0.32561441  0.89554832  0.46183652    -0.74700
Al31       Al  0.34940398  0.85289621  0.47855414     1.90100
O32         O  0.29178761  0.84593936  0.49477398    -0.73800
O33         O  0.34317659  0.92638393  0.51194260    -0.73700
O34         O  0.31310450  0.87593017  0.04507658    -0.79300
O35         O  0.38716475  0.93423294  0.01216965    -0.77500
O36         O  0.34988625  0.87894360  0.50330956    -1.13700
O37         O  0.40800115  0.90179622  0.49878242    -0.72800
C38         C  0.40635593  0.89698357  0.47086871     0.97900
C39         C  0.29172121  0.82234623  0.49401810     0.94300
Al40       Al  0.32065052  0.88538672  0.50350502     1.55600
O41         O  0.37234450  0.84236642  0.00350887    -0.77500
C42         C  0.37006675  0.94360558  0.01204264     0.98400
C43         C  0.32431406  0.87875774  0.44136949     0.93300
O44         O  0.32780980  0.85783233  0.44738410    -0.82800
O45         O  0.51071385  0.13535024  0.04973709    -0.82300
C46         C  0.44444336  0.11451632  0.44425029     0.97100
O47         O  0.45928310  0.10364016  0.45237790    -0.71400
O48         O  0.51373203  0.14157437  0.46151671    -0.75000
Al49       Al  0.48502102  0.10999960  0.48423357     1.49000
C50         C  0.53580338  0.16193335  0.47354657     0.92400
O51         O  0.49764840  0.18899986  0.00747518    -0.81200
O52         O  0.43704435  0.12064218  0.04998680    -0.74700
Al53       Al  0.50321447  0.16071891  0.02704627     1.90100
O54         O  0.45050414  0.16481296  0.00998410    -0.73800
O55         O  0.42138116  0.08351280  0.00347469    -0.73700
O56         O  0.43856787  0.12864606  0.46285478    -0.79300
O57         O  0.45796947  0.07637845  0.50438966    -0.77500
O58         O  0.47597126  0.13202720  0.00568831    -1.13700
O59         O  0.51264424  0.11084071  0.01161535    -0.72800
C60         C  0.51759789  0.11812587  0.03882480     0.97900
C61         C  0.47401052  0.18860224  0.00952319     0.94300
Al62       Al  0.43985010  0.12504143  0.00634062     1.55600
O63         O  0.53454148  0.16967849  0.99998025    -0.77500
C64         C  0.43136434  0.06684643  0.00635286     0.98400
C65         C  0.45460916  0.13961618  0.06803966     0.93300
O66         O  0.47918578  0.15834433  0.05903368    -0.82800
O67         O  0.47251915  0.16428266  0.20931002    -0.82300
C68         C  0.43366131  0.10578075  0.31550849     0.97100
O69         O  0.42869957  0.12195981  0.29908652    -0.71400
O70         O  0.44046770  0.16264631  0.25912901    -0.75000
Al71       Al  0.43098161  0.12280495  0.25614097     1.49000
C72         C  0.46306747  0.18414425  0.26938281     0.92400
O73         O  0.52403929  0.16657134  0.27223782    -0.81200
O74         O  0.50809882  0.11449642  0.24844938    -0.74700
Al75       Al  0.49528941  0.16269692  0.24243778     1.90100
O76         O  0.49672728  0.13160330  0.30300669    -0.73800
O77         O  0.45145157  0.07666019  0.24605108    -0.73700
O78         O  0.44403855  0.09151660  0.30379302    -0.79300
O79         O  0.41353076  0.08100965  0.25339331    -0.77500
O80         O  0.46691839  0.13018021  0.25713536    -1.13700
O81         O  0.43145530  0.12348769  0.21344331    -0.72800
C82         C  0.45003483  0.14376861  0.19734109     0.97900
C83         C  0.52075630  0.15263394  0.29649301     0.94300
Al84       Al  0.47445562  0.10523766  0.27385164     1.55600
O85         O  0.48665648  0.18474157  0.26821671    -0.77500
C86         C  0.42451713  0.06577343  0.24622496     0.98400
C87         C  0.51811774  0.12964097  0.22471362     0.93300
O88         O  0.50720994  0.14399916  0.21526194    -0.82800
O89         O  0.62280137  0.12522192  0.09525110    -0.82300
C90         C  0.67831262  0.11489809  0.19555677     0.97100
O91         O  0.65218044  0.09770346  0.18953090    -0.71400
O92         O  0.63239221  0.13215921  0.18244181    -0.75000
Al93       Al  0.62872381  0.10143393  0.15960345     1.49000
C94         C  0.62431150  0.14830157  0.17139571     0.92400
O95         O  0.69114262  0.18218611  0.13242552    -0.81200
O96         O  0.68136785  0.11222806  0.09049916    -0.74700
Al97       Al  0.65614331  0.15201476  0.11540317     1.90100
O98         O  0.71508880  0.15982150  0.12466308    -0.73800
O99         O  0.66726040  0.07849582  0.13964466    -0.73700
O100        O  0.69625947  0.12830374  0.17472461    -0.79300
O101        O  0.62261999  0.06883177  0.13925719    -0.77500
O102        O  0.65759981  0.12454670  0.13588754    -1.13700
O103        O  0.59857946  0.10004618  0.13460513    -0.72800
C104        C  0.59931589  0.10801387  0.10768572     0.97900
C105        C  0.71463745  0.18303837  0.12654012     0.94300
Al106      Al  0.68785288  0.12003089  0.13276304     1.55600
O107        O  0.63274984  0.15852505  0.14511027    -0.77500
C108        C  0.64053485  0.06047984  0.13860208     0.98400
C109        C  0.68036509  0.12970965  0.07201971     0.93300
O110        O  0.67654193  0.14977628  0.08116937    -0.82800
O111        O  0.62787200  0.14158536  0.33871740    -0.82300
C112        C  0.67041441  0.12077839  0.44411166     0.97100
O113        O  0.64420837  0.10713365  0.43645422    -0.71400
O114        O  0.63245458  0.14835557  0.42699434    -0.75000
Al115      Al  0.62557641  0.11584788  0.40432550     1.49000
C116        C  0.63105697  0.16880472  0.41490865     0.92400
O117        O  0.69483754  0.19149278  0.38039526    -0.81200
O118        O  0.68058377  0.11969205  0.34103801    -0.74700
Al119      Al  0.66102888  0.16523687  0.36062002     1.90100
O120        O  0.71596537  0.16611894  0.37608511    -0.73800
O121        O  0.65852447  0.08563833  0.38823155    -0.73700
O122        O  0.69003618  0.13379803  0.42477369    -0.79300
O123        O  0.61620736  0.08178449  0.38361130    -0.77500
O124        O  0.65701816  0.13608891  0.38258991    -1.13700
O125        O  0.59994913  0.12106244  0.37737966    -0.72800
C126        C  0.60382265  0.13169678  0.35112221     0.97900
C127        C  0.71736186  0.19034886  0.37683712     0.94300
Al128      Al  0.68434376  0.12703437  0.38277754     1.55600
O129        O  0.64016224  0.17659938  0.38822542    -0.77500
C130        C  0.63167458  0.07033535  0.38336031     0.98400
C131        C  0.68330149  0.13761364  0.32108222     0.93300
O132        O  0.68165676  0.15959128  0.32790251    -0.82800
O133        O  0.49733475  0.87224568  0.16423791    -0.82300
C134        C  0.56378881  0.88992416  0.06043596     0.97100
O135        O  0.55220025  0.90430518  0.06806065    -0.71400
O136        O  0.49700011  0.86723942  0.07614757    -0.75000
Al137      Al  0.52525416  0.89803150  0.09937062     1.49000
C138        C  0.47423936  0.84715669  0.08769088     0.92400
O139        O  0.51078000  0.81831237  0.12412931    -0.81200
O140        O  0.57150699  0.88807399  0.16396982    -0.74700
Al141      Al  0.50533867  0.84694337  0.14264856     1.90100
O142        O  0.55768459  0.84202461  0.12809607    -0.73800
O143        O  0.58808687  0.92271490  0.11701855    -0.73700
O144        O  0.56833840  0.87529409  0.07963175    -0.79300
O145        O  0.55207141  0.93050041  0.12079639    -0.77500
O146        O  0.53291848  0.87522000  0.12116778    -1.13700
O147        O  0.49658670  0.89706698  0.12558033    -0.72800
C148        C  0.48983542  0.88864686  0.15237653     0.97900
C149        C  0.53414811  0.81844390  0.12716586     0.94300
Al150      Al  0.56860643  0.88139112  0.12192532     1.55600
O151        O  0.47463784  0.83832509  0.11408847    -0.77500
C152        C  0.57853897  0.93929727  0.12280058     0.98400
C153        C  0.55417693  0.87103277  0.18347648     0.93300
O154        O  0.52977247  0.85041367  0.17590526    -0.82800
O155        O  0.49967657  0.88178261  0.41358873    -0.82300
C156        C  0.56060608  0.88984991  0.30920712     0.97100
O157        O  0.54659211  0.90244474  0.31355585    -0.71400
O158        O  0.49300086  0.86465336  0.32685073    -0.75000
Al159      Al  0.52134332  0.89920775  0.34519560     1.49000
C160        C  0.47081954  0.84745138  0.34142530     0.92400
O161        O  0.51180987  0.82505310  0.37869601    -0.81200
O162        O  0.57207213  0.89922649  0.41369284    -0.74700
Al163      Al  0.50630245  0.85443440  0.39496371     1.90100
O164        O  0.55904566  0.85003253  0.38133933    -0.73800
O165        O  0.58562313  0.93103352  0.36423350    -0.73700
O166        O  0.56855298  0.88035646  0.33084729    -0.79300
O167        O  0.54734301  0.93497265  0.36058838    -0.77500
O168        O  0.53216485  0.88101551  0.37058745    -1.13700
O169        O  0.49414979  0.90053514  0.37197412    -0.72800
C170        C  0.49102595  0.89659902  0.40006992     0.97900
C171        C  0.53561180  0.82588820  0.38159388     0.94300
Al172      Al  0.56856571  0.88951473  0.37213171     1.55600
O173        O  0.47313285  0.84248362  0.36882345    -0.77500
C174        C  0.57393419  0.94645747  0.36443063     0.98400
C175        C  0.55651367  0.88170556  0.43381812     0.93300
O176        O  0.53228860  0.86039881  0.42734551    -0.82800
O177        O  0.62693442  0.49857811  0.21284636    -0.82300
C178        C  0.67278116  0.56345846  0.10797191     0.97100
O179        O  0.64646634  0.54991889  0.11511867    -0.71400
O180        O  0.63029726  0.49560705  0.12476249    -0.75000
Al181      Al  0.62642098  0.52344849  0.14708367     1.49000
C182        C  0.62794795  0.47351339  0.13731151     0.92400
O183        O  0.69339596  0.51333132  0.17053679    -0.81200
O184        O  0.68202907  0.57195418  0.21184790    -0.74700
Al185      Al  0.65971618  0.50679824  0.19056716     1.90100
O186        O  0.71591660  0.56021974  0.17523545    -0.73800
O187        O  0.66250764  0.58692134  0.16489650    -0.73700
O188        O  0.69209469  0.56970139  0.12747851    -0.79300
O189        O  0.61907562  0.54947085  0.16723491    -0.77500
O190        O  0.65744238  0.53318174  0.16889030    -1.13700
O191        O  0.59963488  0.49505725  0.17461832    -0.72800
C192        C  0.60248592  0.49022169  0.20183302     0.97900
C193        C  0.71649868  0.53707083  0.17346725     0.94300
Al194      Al  0.68604138  0.56944429  0.16961015     1.55600
O195        O  0.63731394  0.47501695  0.16371958    -0.77500
C196        C  0.63586225  0.57610558  0.16955294     0.98400
C197        C  0.68353044  0.55541010  0.23102124     0.93300
O198        O  0.68142065  0.53195196  0.22297001    -0.82800
O199        O  0.62473676  0.50330187  0.46533991    -0.82300
C200        C  0.67494802  0.56169895  0.35801575     0.97100
O201        O  0.64857433  0.55013806  0.36457246    -0.71400
O202        O  0.63011981  0.49591087  0.37790604    -0.75000
Al203      Al  0.62711594  0.52555636  0.39744255     1.49000
C204        C  0.62660751  0.47403524  0.39202934     0.92400
O205        O  0.69157818  0.51332364  0.42694183    -0.81200
O206        O  0.68234979  0.57618263  0.46131069    -0.74700
Al207      Al  0.65781326  0.50928010  0.44472378     1.90100
O208        O  0.71579018  0.56042533  0.42858810    -0.73800
O209        O  0.66467965  0.58986436  0.41175767    -0.73700
O210        O  0.69371744  0.56837286  0.37823551    -0.79300
O211        O  0.62071545  0.55340171  0.41477949    -0.77500
O212        O  0.65736217  0.53521042  0.42050849    -1.13700
O213        O  0.59901860  0.49891558  0.42543360    -0.72800
C214        C  0.60068649  0.49448511  0.45307537     0.97900
C215        C  0.71528137  0.53660105  0.42898617     0.94300
Al216      Al  0.68696910  0.57099381  0.41982506     1.55600
O217        O  0.63510739  0.47637103  0.41897884    -0.77500
C218        C  0.63801637  0.58004428  0.41578712     0.98400
C219        C  0.68280907  0.56026874  0.48192689     0.93300
O220        O  0.67943774  0.53582013  0.47611320    -0.82800
O221        O  0.50463243  0.38179083  0.01026694    -0.82300
C222        C  0.44510162  0.33078808  0.11724462     0.97100
O223        O  0.45753047  0.35716499  0.11060685    -0.71400
O224        O  0.51126723  0.37473561  0.09745229    -0.75000
Al225      Al  0.48214944  0.37860485  0.07811643     1.49000
C226        C  0.53322864  0.37850319  0.08346719     0.92400
O227        O  0.49402029  0.31416212  0.04764300    -0.81200
O228        O  0.43136277  0.32391156  0.51381709    -0.74700
Al229      Al  0.49829330  0.34828574  0.03040262     1.90100
O230        O  0.44692203  0.29018576  0.04620407    -0.73800
O231        O  0.41798524  0.34148474  0.06333021    -0.73700
O232        O  0.43876655  0.31198529  0.09712109    -0.79300
O233        O  0.45442409  0.38563819  0.06141850    -0.77500
O234        O  0.47232191  0.34858729  0.05468166    -1.13700
O235        O  0.50902160  0.40696605  0.05053597    -0.72800
C236        C  0.51347680  0.40567618  0.02287070     0.97900
C237        C  0.47067111  0.29057976  0.04515548     0.94300
Al238      Al  0.43650961  0.31905628  0.05524164     1.55600
O239        O  0.53112615  0.37043943  0.05641324    -0.77500
C240        C  0.42773854  0.36833371  0.06148485     0.98400
C241        C  0.44721768  0.32362908  0.49310842     0.93300
O242        O  0.47180346  0.32723459  0.49875308    -0.82800
O243        O  0.50816603  0.37895722  0.26312159    -0.82300
C244        C  0.44230760  0.33391146  0.36746271     0.97100
O245        O  0.45717257  0.36030216  0.36096370    -0.71400
O246        O  0.51055762  0.37406216  0.35125464    -0.75000
Al247      Al  0.48389612  0.37992326  0.32919876     1.49000
C248        C  0.53273773  0.37683733  0.33869127     0.92400
O249        O  0.49039670  0.31101287  0.30539710    -0.81200
O250        O  0.43442521  0.32652092  0.26321677    -0.74700
Al251      Al  0.49866395  0.34558287  0.28533742     1.90100
O252        O  0.44357541  0.29077482  0.30017730    -0.73800
O253        O  0.42038040  0.34690945  0.31016364    -0.73700
O254        O  0.43488732  0.31487585  0.34749165    -0.79300
O255        O  0.45918696  0.38932811  0.30974459    -0.77500
O256        O  0.47288275  0.34904803  0.30684962    -1.13700
O257        O  0.51268128  0.40621440  0.30174710    -0.72800
C258        C  0.51703476  0.40341925  0.27437917     0.97900
C259        C  0.46582803  0.28864568  0.30293809     0.94300
Al260      Al  0.43610444  0.32179619  0.30547259     1.55600
O261        O  0.53107904  0.36743058  0.31226841    -0.77500
C262        C  0.43236326  0.37393110  0.30772978     0.98400
C263        C  0.45025553  0.32350223  0.24439915     0.93300
O264        O  0.47316596  0.32449478  0.25275631    -0.82800
O265        O  0.50172800  0.62397799  0.13237662    -0.82300
C266        C  0.56040167  0.67933368  0.23758182     0.97100
O267        O  0.54613591  0.65254582  0.23347382    -0.71400
O268        O  0.49244390  0.63432171  0.21861926    -0.75000
Al269      Al  0.52206823  0.62954412  0.20151418     1.49000
C270        C  0.47060630  0.62914115  0.20349325     0.92400
O271        O  0.51071367  0.69196600  0.16609365    -0.81200
O272        O  0.57358956  0.68181845  0.13334206    -0.74700
Al273      Al  0.50686449  0.65767307  0.15047972     1.90100
O274        O  0.55805073  0.71597621  0.16492087    -0.73800
O275        O  0.58665898  0.66505991  0.18399907    -0.73700
O276        O  0.56779124  0.69676617  0.21587836    -0.79300
O277        O  0.54966563  0.62135777  0.18768208    -0.77500
O278        O  0.53266155  0.65838383  0.17577920    -1.13700
O279        O  0.49594652  0.60009870  0.17441467    -0.72800
C280        C  0.49267556  0.60054823  0.14627671     0.97900
C281        C  0.53424852  0.71548609  0.16374344     0.94300
Al282      Al  0.56870271  0.68762759  0.17480283     1.55600
O283        O  0.47334528  0.63569058  0.17588371    -0.77500
C284        C  0.57629693  0.63812252  0.18533128     0.98400
C285        C  0.55808823  0.68309822  0.11284818     0.93300
O286        O  0.53319871  0.67843524  0.11867813    -0.82800
O287        O  0.49944197  0.63014017  0.38256503    -0.82300
C288        C  0.56353578  0.68040418  0.48695364     0.97100
O289        O  0.54984451  0.65393811  0.48078862    -0.71400
O290        O  0.49537747  0.63619326  0.47032675    -0.75000
Al291      Al  0.52396109  0.63261240  0.44914299     1.49000
C292        C  0.47273350  0.63185917  0.45741462     0.92400
O293        O  0.51175535  0.69803189  0.42081008    -0.81200
O294        O  0.57257859  0.68766272  0.38281388    -0.74700
Al295      Al  0.50640599  0.66346153  0.40325497     1.90100
O296        O  0.55889044  0.72134729  0.41748022    -0.73800
O297        O  0.58778369  0.66917381  0.43106395    -0.73700
O298        O  0.56927197  0.69919158  0.46683878    -0.79300
O299        O  0.55080001  0.62542524  0.43069704    -0.77500
O300        O  0.53320703  0.66287309  0.42593361    -1.13700
O301        O  0.49621322  0.60441880  0.42221013    -0.72800
C302        C  0.49134331  0.60613031  0.39473190     0.97900
C303        C  0.53536438  0.72146036  0.41759832     0.94300
Al304      Al  0.56928551  0.69211992  0.42479951     1.55600
O305        O  0.47410083  0.64071163  0.43063686    -0.77500
C306        C  0.57752294  0.64220955  0.42984371     0.98400
C307        C  0.55606694  0.68863128  0.36329706     0.93300
O308        O  0.53165395  0.68463629  0.37066379    -0.82800
O309        O  0.37977419  0.50725007  0.08972173    -0.82300
C310        C  0.33095139  0.44622835  0.48394800     0.97100
O311        O  0.35719957  0.45785185  0.49090303    -0.71400
O312        O  0.37597558  0.51262102  0.00189618    -0.75000
Al313      Al  0.37818271  0.48312131  0.02323288     1.49000
C314        C  0.37924594  0.53483044  0.01492097     0.92400
O315        O  0.31256514  0.49575873  0.05026178    -0.81200
O316        O  0.32159797  0.43389971  0.08795052    -0.74700
Al317      Al  0.34679370  0.50063190  0.06842350     1.90100
O318        O  0.28900931  0.44868918  0.05307693    -0.73800
O319        O  0.34026938  0.41920585  0.03993403    -0.73700
O320        O  0.31188235  0.43986400  0.00384146    -0.79300
O321        O  0.38416273  0.45568941  0.04241737    -0.77500
O322        O  0.34752916  0.47408509  0.04567026    -1.13700
O323        O  0.40589854  0.51003523  0.05075026    -0.72800
C324        C  0.40383863  0.51458284  0.07818725     0.97900
C325        C  0.28904386  0.47223505  0.05313105     0.94300
Al326      Al  0.31792581  0.43820317  0.04589021     1.55600
O327        O  0.36979541  0.53295576  0.04146272    -0.77500
C328        C  0.36680100  0.42917975  0.04479638     0.98400
C329        C  0.32082842  0.45035214  0.10762896     0.93300
O330        O  0.32519684  0.47498269  0.10055443    -0.82800
O331        O  0.38012180  0.51276806  0.33520574    -0.82300
C332        C  0.32953608  0.44554656  0.23343585     0.97100
O333        O  0.35626220  0.45988241  0.23841511    -0.71400
O334        O  0.37146473  0.51379104  0.24744219    -0.75000
Al335      Al  0.37773694  0.48722899  0.26917972     1.49000
C336        C  0.37477681  0.53623128  0.25975003     0.92400
O337        O  0.31090528  0.49554171  0.29716973    -0.81200
O338        O  0.32664504  0.43910657  0.33784778    -0.74700
Al339      Al  0.34605351  0.50348162  0.31499420     1.90100
O340        O  0.28979190  0.44880226  0.30357293    -0.73800
O341        O  0.34468255  0.42404432  0.28962779    -0.73700
O342        O  0.31148245  0.43896125  0.25442724    -0.79300
O343        O  0.38730467  0.46255078  0.28811165    -0.77500
O344        O  0.34793348  0.47706235  0.29321447    -1.13700
O345        O  0.40581690  0.51647337  0.29538973    -0.72800
C346        C  0.40413856  0.52112994  0.32298109     0.97900
C347        C  0.28834219  0.47153004  0.30170092     0.94300
Al348      Al  0.32021163  0.44048753  0.29595797     1.55600
O349        O  0.36678267  0.53521227  0.28675037    -0.77500
C350        C  0.37177443  0.43589012  0.29139079     0.98400
C351        C  0.32475688  0.45539552  0.35691111     0.93300
O352        O  0.32641230  0.47868562  0.34870499    -0.82800
O353        O  0.13229121  0.50737339  0.04571917    -0.82300
C354        C  0.11417961  0.44605290  0.15282015     0.97100
O355        O  0.10169734  0.45971963  0.14541472    -0.71400
O356        O  0.13951785  0.51359847  0.13340298    -0.75000
Al357      Al  0.10717880  0.48475779  0.11230770     1.49000
C358        C  0.15921567  0.53541249  0.12023755     0.92400
O359        O  0.18415680  0.49406006  0.08917644    -0.81200
O360        O  0.11246643  0.43456652  0.04887080    -0.74700
Al361      Al  0.15684898  0.49994774  0.06858998     1.90100
O362        O  0.15951880  0.44708876  0.08504717    -0.73800
O363        O  0.07804161  0.42035236  0.09627985    -0.73700
O364        O  0.12604001  0.43848237  0.13322503    -0.79300
O365        O  0.07288190  0.45797907  0.09388675    -0.77500
O366        O  0.12796566  0.47422395  0.09090973    -1.13700
O367        O  0.10843551  0.51199592  0.08325714    -0.72800
C368        C  0.11726461  0.51700903  0.05636554     0.97900
C369        C  0.18358922  0.47045204  0.08640446     0.94300
Al370      Al  0.11970809  0.43785176  0.09103071     1.55600
O371        O  0.16693712  0.53300457  0.09406252    -0.77500
C372        C  0.06206159  0.43118244  0.09320560     0.98400
C373        C  0.13061099  0.45070952  0.02943356     0.93300
O374        O  0.15284482  0.47374906  0.03723226    -0.82800
O375        O  0.13235110  0.50606679  0.29329919    -0.82300
C376        C  0.11588640  0.44800223  0.40229097     0.97100
O377        O  0.10208049  0.46027466  0.39445473    -0.71400
O378        O  0.13968432  0.51413710  0.38117041    -0.75000
Al379      Al  0.10752591  0.48486400  0.36035525     1.49000
C380        C  0.15950736  0.53569851  0.36779088     0.92400
O381        O  0.18443387  0.49426923  0.33785316    -0.81200
O382        O  0.11267077  0.43327559  0.29954233    -0.74700
Al383      Al  0.15706042  0.49942003  0.31674180     1.90100
O384        O  0.16029370  0.44727072  0.33471860    -0.73800
O385        O  0.07933805  0.42040176  0.34718387    -0.73700
O386        O  0.12815351  0.44061820  0.38305425    -0.79300
O387        O  0.07379850  0.45761670  0.34162357    -0.77500
O388        O  0.12854969  0.47421831  0.33967754    -1.13700
O389        O  0.10864911  0.51159603  0.33033055    -0.72800
C390        C  0.11722018  0.51580414  0.30328548     0.97900
C391        C  0.18413683  0.47081503  0.33539665     0.94300
Al392      Al  0.12077652  0.43805657  0.34125518     1.55600
O393        O  0.16710750  0.53299965  0.34160145    -0.77500
C394        C  0.06360727  0.43092956  0.34087285     0.98400
C395        C  0.13014934  0.44889759  0.27940797     0.93300
O396        O  0.15269164  0.47220162  0.28603708    -0.82800
O397        O  0.13164766  0.62933260  0.24602760    -0.82300
C398        C  0.11685548  0.67636623  0.14030583     0.97100
O399        O  0.10370279  0.64983293  0.14669837    -0.71400
O400        O  0.14209427  0.63474802  0.15834249    -0.75000
Al401      Al  0.10885160  0.62928691  0.17905934     1.49000
C402        C  0.16117704  0.63211716  0.17185129     0.92400
O403        O  0.18426432  0.69705327  0.20581815    -0.81200
O404        O  0.11109361  0.68218615  0.24401739    -0.74700
Al405      Al  0.15667354  0.66272490  0.22478889     1.90100
O406        O  0.15918049  0.71858204  0.21040503    -0.73800
O407        O  0.07882268  0.66303692  0.19512050    -0.73700
O408        O  0.12836086  0.69519582  0.16056644    -0.79300
O409        O  0.07410413  0.62033876  0.19715899    -0.77500
O410        O  0.12856717  0.65991664  0.20189514    -1.13700
O411        O  0.10983371  0.60222648  0.20692225    -0.72800
C412        C  0.11773272  0.60498934  0.23406636     0.97900
C413        C  0.18332940  0.71975677  0.20969986     0.94300
Al414      Al  0.12004870  0.68773584  0.20228674     1.55600
O415        O  0.16800412  0.64130637  0.19848878    -0.77500
C416        C  0.06302458  0.63597018  0.19758699     0.98400
C417        C  0.12876370  0.68428691  0.26391326     0.93300
O418        O  0.15102155  0.68331279  0.25695679    -0.82800
O419        O  0.13241286  0.63053611  0.99806541    -0.82300
C420        C  0.11626579  0.67492252  0.39097315     0.97100
O421        O  0.10243307  0.64872240  0.39884278    -0.71400
O422        O  0.13929727  0.63142181  0.41033193    -0.75000
Al423      Al  0.10763130  0.62879791  0.43192816     1.49000
C424        C  0.15911339  0.62942120  0.42311378     0.92400
O425        O  0.18613964  0.69582049  0.45515909    -0.81200
O426        O  0.11513701  0.68572710  0.99418843    -0.74700
Al427      Al  0.15779144  0.66257704  0.47535324     1.90100
O428        O  0.16273069  0.71911557  0.45872268    -0.73800
O429        O  0.08094635  0.66588437  0.44689423    -0.73700
O430        O  0.12958931  0.69453543  0.41015082    -0.79300
O431        O  0.07417914  0.62249456  0.45146117    -0.77500
O432        O  0.12954078  0.66025096  0.45294070    -1.13700
O433        O  0.10819747  0.60219897  0.46064499    -0.72800
C434        C  0.11701532  0.60581992  0.48746398     0.97900
C435        C  0.18637836  0.71920345  0.45821124     0.94300
Al436      Al  0.12273737  0.68923479  0.45228800     1.55600
O437        O  0.16704463  0.63936259  0.44935438    -0.77500
C438        C  0.06450399  0.63934469  0.45247411     0.98400
C439        C  0.13259221  0.68714432  0.01396708     0.93300
O440        O  0.15414952  0.68496008  0.00691377    -0.82800
O441        O  0.87025328  0.49761764  0.17012602    -0.82300
C442        C  0.88793606  0.56168224  0.27485626     0.97100
O443        O  0.90075920  0.54816792  0.26844566    -0.71400
O444        O  0.86162993  0.49426489  0.25821981    -0.75000
Al445      Al  0.89446004  0.52172999  0.23651486     1.49000
C446        C  0.84199981  0.47222682  0.24550613     0.92400
O447        O  0.81866404  0.51286296  0.21121842    -0.81200
O448        O  0.89048554  0.57140554  0.17104753    -0.74700
Al449      Al  0.84568800  0.50611905  0.19177388     1.90100
O450        O  0.84368328  0.55972930  0.20606690    -0.73800
O451        O  0.92416009  0.58551223  0.21874945    -0.73700
O452        O  0.87576053  0.56834631  0.25476779    -0.79300
O453        O  0.92880450  0.54749780  0.21722084    -0.77500
O454        O  0.87430919  0.53211328  0.21385400    -1.13700
O455        O  0.89269044  0.49313461  0.20906633    -0.72800
C456        C  0.88545001  0.48848995  0.18166637     0.97900
C457        C  0.81960223  0.53651917  0.20743325     0.94300
Al458      Al  0.88283249  0.56852485  0.21294175     1.55600
O459        O  0.83494463  0.47385839  0.21874506    -0.77500
C460        C  0.93970465  0.57428767  0.21515864     0.98400
C461        C  0.87234519  0.55545594  0.15167073     0.93300
O462        O  0.85046548  0.53188853  0.15920750    -0.82800
O463        O  0.87458916  0.49966034  0.41883173    -0.82300
C464        C  0.88686085  0.56002444  0.02524984     0.97100
O465        O  0.89953331  0.54638678  0.01899302    -0.71400
O466        O  0.86315934  0.49256001  0.00608416    -0.75000
Al467      Al  0.89623473  0.52224883  0.48634538     1.49000
C468        C  0.84410791  0.47087143  0.49238153     0.92400
O469        O  0.81941484  0.51147402  0.45835966    -0.81200
O470        O  0.89189274  0.57268503  0.42102107    -0.74700
Al471      Al  0.84836228  0.50642138  0.43990054     1.90100
O472        O  0.84397547  0.55859265  0.45580809    -0.73800
O473        O  0.92455894  0.58676856  0.46959354    -0.73700
O474        O  0.87544172  0.56740484  0.50495423    -0.79300
O475        O  0.93155361  0.55018048  0.46980828    -0.77500
O476        O  0.87596519  0.53239514  0.46326206    -1.13700
O477        O  0.89732906  0.49605076  0.45802208    -0.72800
C478        C  0.89084719  0.49183588  0.43046755     0.97900
C479        C  0.82003559  0.53522366  0.45651599     0.94300
Al480      Al  0.88334280  0.56851456  0.46300275     1.55600
O481        O  0.83764135  0.47345673  0.46569856    -0.77500
C482        C  0.94139229  0.57685771  0.46849174     0.98400
C483        C  0.87437543  0.55670947  0.40119228     0.93300
O484        O  0.85311868  0.53255176  0.40816802    -0.82800
O485        O  0.87071727  0.37739336  0.12215556    -0.82300
C486        C  0.88599648  0.33096756  0.01580878     0.97100
O487        O  0.89836160  0.35733859  0.02245381    -0.71400
O488        O  0.85997261  0.37239295  0.03433897    -0.75000
Al489      Al  0.89304072  0.37741771  0.05484635     1.49000
C490        C  0.84098123  0.37521525  0.04781006     0.92400
O491        O  0.81664463  0.30996627  0.08224890    -0.81200
O492        O  0.88941038  0.32305808  0.11941975    -0.74700
Al493      Al  0.84501859  0.34419281  0.10082506     1.90100
O494        O  0.84141447  0.28791467  0.08525335    -0.73800
O495        O  0.92257510  0.34296783  0.07124440    -0.73700
O496        O  0.87355153  0.31176343  0.03572512    -0.79300
O497        O  0.92770516  0.38583813  0.07294073    -0.77500
O498        O  0.87291434  0.34659860  0.07756360    -1.13700
O499        O  0.89235042  0.40433488  0.08277119    -0.72800
C500        C  0.88579256  0.40180494  0.11037142     0.97900
C501        C  0.81734567  0.28700753  0.08537243     0.94300
Al502      Al  0.88099467  0.31846157  0.07767172     1.55600
O503        O  0.83420827  0.36624287  0.07461574    -0.77500
C504        C  0.93841956  0.36990064  0.07485102     0.98400
C505        C  0.87196918  0.32127710  0.13940722     0.93300
O506        O  0.85010538  0.32297550  0.13262847    -0.82800
O507        O  0.87825052  0.38286856  0.37276598    -0.82300
C508        C  0.88644922  0.33299953  0.26551668     0.97100
O509        O  0.89977515  0.35950613  0.27149754    -0.71400
O510        O  0.86367044  0.37688966  0.28569106    -0.75000
Al511      Al  0.89712425  0.38074505  0.30432293     1.49000
C512        C  0.84534474  0.38006238  0.30011170     0.92400
O513        O  0.82095608  0.31570085  0.33502697    -0.81200
O514        O  0.89338749  0.32573017  0.36920302    -0.74700
Al515      Al  0.85076998  0.34964543  0.35256485     1.90100
O516        O  0.84453093  0.29235992  0.33627661    -0.73800
O517        O  0.92463772  0.34409256  0.31983770    -0.73700
O518        O  0.87470091  0.31434461  0.28603648    -0.79300
O519        O  0.93233503  0.38808054  0.32015264    -0.77500
O520        O  0.87718281  0.35053670  0.32803288    -1.13700
O521        O  0.89901924  0.40865189  0.33240630    -0.72800
C522        C  0.89353904  0.40690684  0.36022526     0.97900
C523        C  0.82102878  0.29234702  0.33732510     0.94300
Al524      Al  0.88373386  0.32135433  0.32765262     1.55600
O525        O  0.83995113  0.37198356  0.32724778    -0.77500
C526        C  0.94169495  0.37093820  0.32127492     0.98400
C527        C  0.87659328  0.32444048  0.38970814     0.93300
O528        O  0.85575991  0.32812098  0.38389947    -0.82800
C529        C  0.85797927  0.30109716  0.43915097    -0.21800
C530        C  0.88143667  0.32007104  0.42117225    -0.09800
C531        C  0.90781312  0.33897391  0.43468331     0.29100
C532        C  0.90978493  0.34085815  0.46595814    -0.21800
C533        C  0.88570195  0.32343382  0.48402657    -0.09800
C534        C  0.86017346  0.30241791  0.47047123     0.29100
F535        F  0.83652852  0.28535828  0.48731729    -0.20300
H536        H  0.83743952  0.28651748  0.42891758     0.17400
H537        H  0.92964679  0.35717036  0.47607477     0.17400
F538        F  0.93062976  0.35780801  0.41774817    -0.20300
C539        C  0.85408963  0.30186052  0.19046469    -0.21800
C540        C  0.87735216  0.31872654  0.17126397    -0.09800
C541        C  0.90463306  0.33693496  0.18353255     0.29100
C542        C  0.90788470  0.34009125  0.21465693    -0.21800
C543        C  0.88420531  0.32457042  0.23384011    -0.09800
C544        C  0.85752361  0.30445429  0.22162048     0.29100
F545        F  0.83419429  0.28948377  0.23959623    -0.20300
H546        H  0.83289294  0.28782357  0.18127440     0.17400
H547        H  0.92859185  0.35576499  0.22377398     0.17400
F548        F  0.92741243  0.35378721  0.16549625    -0.20300
C549        C  0.83041861  0.43848110  0.03742889    -0.21800
C550        C  0.83297549  0.44198036  0.00606730    -0.09800
C551        C  0.83125747  0.41946153  0.48851537     0.29100
C552        C  0.83064517  0.39574738  0.00230668    -0.21800
C553        C  0.83086104  0.39356354  0.03376279    -0.09800
C554        C  0.82879400  0.41424024  0.05119706     0.29100
F555        F  0.82878499  0.41293514  0.08166727    -0.20300
H556        H  0.83173448  0.45550573  0.05141958     0.17400
H557        H  0.83234938  0.38022801  0.98838672     0.17400
F558        F  0.83387935  0.42200947  0.45815417    -0.20300
C559        C  0.90422395  0.45425382  0.42613461    -0.21800
C560        C  0.89997553  0.47521833  0.41222744    -0.09800
C561        C  0.90009350  0.47690619  0.38067544     0.29100
C562        C  0.90127083  0.45598733  0.36349234    -0.21800
C563        C  0.90187948  0.43299996  0.37757534    -0.09800
C564        C  0.90495220  0.43306874  0.40893976     0.29100
F565        F  0.90659076  0.41156890  0.42305666    -0.20300
H566        H  0.90447750  0.45275262  0.45040694     0.17400
H567        H  0.89900576  0.45634813  0.33932254     0.17400
F568        F  0.89702624  0.49754370  0.36649745    -0.20300
C569        C  0.85855555  0.55787247  0.31906503    -0.21800
C570        C  0.88581622  0.56772561  0.30657014    -0.09800
C571        C  0.90991352  0.57845699  0.32549408     0.29100
C572        C  0.90641019  0.57749314  0.35670959    -0.21800
C573        C  0.87877591  0.56501131  0.36925353    -0.09800
C574        C  0.85492913  0.55611983  0.35020379     0.29100
F575        F  0.82793063  0.54414384  0.36168672    -0.20300
H576        H  0.83976358  0.54929820  0.30475763     0.17400
H577        H  0.92499305  0.58431386  0.37101863     0.17400
F578        F  0.93657451  0.58841960  0.31379727    -0.20300
C579        C  0.90440198  0.57192518  0.10743070    -0.21800
C580        C  0.87726509  0.56314109  0.11968020    -0.09800
C581        C  0.85434204  0.55777978  0.10051173     0.29100
C582        C  0.85828530  0.55960420  0.06932102    -0.21800
C583        C  0.88483483  0.56591049  0.05708442    -0.09800
C584        C  0.90811341  0.57288142  0.07636147     0.29100
F585        F  0.93402071  0.57896947  0.06512666    -0.20300
H586        H  0.92219352  0.57586293  0.12189207     0.17400
H587        H  0.84006691  0.55389613  0.05478675     0.17400
F588        F  0.82791261  0.54954128  0.11192200    -0.20300
C589        C  0.82995143  0.42151762  0.24207542    -0.21800
C590        C  0.83171171  0.44385485  0.25984766    -0.09800
C591        C  0.83113235  0.44102270  0.29131101     0.29100
C592        C  0.83183336  0.41774656  0.30453481    -0.21800
C593        C  0.83393594  0.39744039  0.28659366    -0.09800
C594        C  0.83151530  0.39873168  0.25524331     0.29100
F595        F  0.83317926  0.37937560  0.23720386    -0.20300
H596        H  0.83065535  0.42330608  0.21778941     0.17400
H597        H  0.83381104  0.41734132  0.32873722     0.17400
F598        F  0.83241826  0.46199676  0.30918276    -0.20300
C599        C  0.89323871  0.45080387  0.11451245    -0.21800
C600        C  0.89297589  0.42730253  0.12838715    -0.09800
C601        C  0.89496490  0.42663012  0.15987540     0.29100
C602        C  0.89496312  0.44813903  0.17722459    -0.21800
C603        C  0.89246223  0.47020006  0.16340157    -0.09800
C604        C  0.89264899  0.47196829  0.13182775     0.29100
F605        F  0.89062366  0.49324200  0.11769387    -0.20300
H606        H  0.89161294  0.45165335  0.09030110     0.17400
H607        H  0.89480104  0.44636614  0.20149446     0.17400
F608        F  0.89537302  0.40442811  0.17390870    -0.20300
C609        C  0.01665504  0.63707792  0.44662472    -0.21800
C610        C  0.03355556  0.62684795  0.45977776    -0.09800
C611        C  0.02000428  0.60214714  0.47810513     0.29100
C612        C  0.99024647  0.58692974  0.48140639    -0.21800
C613        C  0.97304612  0.59595933  0.46693122    -0.09800
C614        C  0.98651210  0.62175423  0.45020706     0.29100
F615        F  0.97052993  0.63112272  0.43588278    -0.20300
H616        H  0.02658381  0.65603294  0.43242431     0.17400
H617        H  0.98051001  0.56754844  0.49500119     0.17400
F618        F  0.03553926  0.59223336  0.49244901    -0.20300
C619        C  0.01746876  0.63625880  0.21050274    -0.21800
C620        C  0.03128459  0.62162837  0.20025752    -0.09800
C621        C  0.01440442  0.59219249  0.19334578     0.29100
C622        C  0.98484167  0.57768062  0.19758216    -0.21800
C623        C  0.97096022  0.59178792  0.20885091    -0.09800
C624        C  0.98747160  0.62145766  0.21485699     0.29100
F625        F  0.97489954  0.63587012  0.22592394    -0.20300
H626        H  0.02994909  0.65888734  0.21594977     0.17400
H627        H  0.97277222  0.55499551  0.19222245     0.17400
F628        F  0.02635981  0.57710282  0.18244996    -0.20300
C629        C  0.14564076  0.70602662  0.31433715    -0.21800
C630        C  0.12322648  0.68647649  0.29581770    -0.09800
C631        C  0.09707034  0.66592090  0.30881429     0.29100
C632        C  0.09431261  0.66344753  0.34005350    -0.21800
C633        C  0.11733265  0.68185396  0.35871952    -0.09800
C634        C  0.14259806  0.70410713  0.34562230     0.29100
F635        F  0.16523008  0.72233805  0.36293967    -0.20300
H636        H  0.16597411  0.72194891  0.30455571     0.17400
H637        H  0.07462437  0.64621716  0.34968671     0.17400
F638        F  0.07522641  0.64648202  0.29141018    -0.20300
C639        C  0.09609881  0.66898663  0.08918902    -0.21800
C640        C  0.11951093  0.68462122  0.10846362    -0.09800
C641        C  0.14648990  0.70430899  0.09625193     0.29100
C642        C  0.15039239  0.70644071  0.06508536    -0.21800
C643        C  0.12727470  0.68963086  0.04586145    -0.09800
C644        C  0.09981371  0.67169774  0.05807002     0.29100
F645        F  0.07723782  0.65467091  0.04003934    -0.20300
H646        H  0.07522734  0.65352751  0.09828267     0.17400
H647        H  0.17173405  0.72020713  0.05596316     0.17400
F648        F  0.16959852  0.71932771  0.11436666    -0.20300
C649        C  0.99082164  0.40995176  0.30969951    -0.21800
C650        C  0.97306398  0.38323576  0.32335614    -0.09800
C651        C  0.98564744  0.37035690  0.34030472     0.29100
C652        C  0.01555690  0.38515512  0.34497852    -0.21800
C653        C  0.03297858  0.41278455  0.33273655    -0.09800
C654        C  0.02034384  0.42450629  0.31412913     0.29100
F655        F  0.03649855  0.45050075  0.30063573    -0.20300
H656        H  0.98168866  0.42000345  0.29600617     0.17400
H657        H  0.02485731  0.37570576  0.35929600     0.17400
F658        F  0.96897880  0.34450505  0.35385077    -0.20300
C659        C  0.08940379  0.55587336  0.25723217    -0.21800
C660        C  0.11571993  0.58076079  0.25068093    -0.09800
C661        C  0.14152989  0.58317332  0.26047120     0.29100
C662        C  0.14117218  0.56094203  0.27624416    -0.21800
C663        C  0.11513340  0.53687328  0.28460577    -0.09800
C664        C  0.08904665  0.53403635  0.27488154     0.29100
F665        F  0.06367485  0.51018194  0.28178380    -0.20300
H666        H  0.06940428  0.55380309  0.24947356     0.17400
H667        H  0.16145763  0.56291000  0.28277562     0.17400
F668        F  0.16725516  0.60715118  0.25473331    -0.20300
C669        C  0.17262595  0.56794322  0.41251800    -0.21800
C670        C  0.17009723  0.56451871  0.38120867    -0.09800
C671        C  0.17068133  0.58662565  0.36371795     0.29100
C672        C  0.16979830  0.60951815  0.37743874    -0.21800
C673        C  0.16964313  0.61154982  0.40885309    -0.09800
C674        C  0.17312459  0.59159048  0.42621379     0.29100
F675        F  0.17372239  0.59301463  0.45660137    -0.20300
H676        H  0.17223395  0.55127698  0.42653627     0.17400
H677        H  0.16723641  0.62459467  0.36350925     0.17400
F678        F  0.16862622  0.58445131  0.33345765    -0.20300
C679        C  0.98585880  0.37042961  0.07432521    -0.21800
C680        C  0.96979183  0.38375239  0.08114321    -0.09800
C681        C  0.98430596  0.41165369  0.09331784     0.29100
C682        C  0.01388799  0.42605165  0.09754748    -0.21800
C683        C  0.03027450  0.41339426  0.08993915    -0.09800
C684        C  0.01592838  0.38512526  0.07866273     0.29100
F685        F  0.03096079  0.37216872  0.07081510    -0.20300
H686        H  0.97528999  0.34900915  0.06491681     0.17400
H687        H  0.02406655  0.44754667  0.10678249     0.17400
F688        F  0.96998228  0.42535498  0.10126409    -0.20300
C689        C  0.14074013  0.58459406  0.01411884    -0.21800
C690        C  0.11475273  0.58199639  0.00502199    -0.09800
C691        C  0.08856885  0.55749330  0.01288639     0.29100
C692        C  0.08879403  0.53592408  0.03047198    -0.21800
C693        C  0.11516550  0.53856609  0.03871394    -0.09800
C694        C  0.14105093  0.56280624  0.03003364     0.29100
F695        F  0.16681259  0.56561498  0.03732418    -0.20300
H696        H  0.16105972  0.60352787  0.00839192     0.17400
H697        H  0.06872855  0.51716027  0.03711870     0.17400
F698        F  0.06320289  0.55488359  0.00433784    -0.20300
C699        C  0.17262824  0.58684877  0.11509079    -0.21800
C700        C  0.16955715  0.56422885  0.13361952    -0.09800
C701        C  0.17001236  0.56768404  0.16494543     0.29100
C702        C  0.17127144  0.59217935  0.17725533    -0.21800
C703        C  0.17091991  0.61317496  0.15870404    -0.09800
C704        C  0.17276799  0.61085871  0.12741603     0.29100
F705        F  0.17252240  0.63067667  0.10870530    -0.20300
H706        H  0.17203320  0.58468300  0.09092117     0.17400
H707        H  0.16946423  0.59315632  0.20133717     0.17400
F708        F  0.16697067  0.54637668  0.18365613    -0.20300
C709        C  0.14956718  0.45391319  0.47783947    -0.21800
C710        C  0.12577555  0.44408479  0.49713219    -0.09800
C711        C  0.09810784  0.43240968  0.48473514     0.29100
C712        C  0.09472471  0.43266686  0.45355836    -0.21800
C713        C  0.11871902  0.44363807  0.43444331    -0.09800
C714        C  0.14608626  0.45343522  0.44673097     0.29100
F715        F  0.16973143  0.46480962  0.42879965    -0.20300
H716        H  0.17107379  0.46317780  0.48694145     0.17400
H717        H  0.07349771  0.42512646  0.44435655     0.17400
F718        F  0.07468287  0.42297751  0.50274310    -0.20300
C719        C  0.09493643  0.44000118  0.20474849    -0.21800
C720        C  0.11551374  0.44030923  0.18509116    -0.09800
C721        C  0.13911668  0.43925896  0.19715580     0.29100
C722        C  0.14318499  0.44042609  0.22831839    -0.21800
C723        C  0.12329152  0.44160711  0.24767304    -0.09800
C724        C  0.09866839  0.44047140  0.23578181     0.29100
F725        F  0.07964747  0.44258783  0.25407308    -0.20300
H726        H  0.07659952  0.44082896  0.19604238     0.17400
H727        H  0.16241303  0.44157873  0.23731235     0.17400
F728        F  0.15940785  0.43947395  0.17892541    -0.20300
C729        C  0.26019929  0.49623832  0.30898502    -0.21800
C730        C  0.26091722  0.47057149  0.30865408    -0.09800
C731        C  0.23642974  0.44506459  0.31866864     0.29100
C732        C  0.21193647  0.44545422  0.32847899    -0.21800
C733        C  0.21133881  0.47119788  0.32889233    -0.09800
C734        C  0.23589384  0.49668208  0.31902567     0.29100
F735        F  0.23632441  0.52206631  0.31816198    -0.20300
H736        H  0.27871221  0.51627265  0.30179570     0.17400
H737        H  0.19329040  0.42547605  0.33555920     0.17400
F738        F  0.23614395  0.41975273  0.31947326    -0.20300
C739        C  0.23609806  0.49690923  0.07334799    -0.21800
C740        C  0.21099913  0.47075437  0.08040874    -0.09800
C741        C  0.21177683  0.44514707  0.07769167     0.29100
C742        C  0.23682374  0.44582264  0.06778388    -0.21800
C743        C  0.26181245  0.47195358  0.06029805    -0.09800
C744        C  0.26113068  0.49759309  0.06342924     0.29100
F745        F  0.28464031  0.52345492  0.05706621    -0.20300
H746        H  0.23623235  0.51702283  0.07478909     0.17400
H747        H  0.23669459  0.42571186  0.06635904     0.17400
F748        F  0.18834396  0.41935916  0.08448704    -0.20300
C749        C  0.30828539  0.45447812  0.43965689    -0.21800
C750        C  0.32354172  0.44216538  0.45187753    -0.09800
C751        C  0.33622447  0.43113295  0.43254611     0.29100
C752        C  0.33473902  0.43362601  0.40139397    -0.21800
C753        C  0.32141092  0.44798101  0.38918256    -0.09800
C754        C  0.30750297  0.45774443  0.40855413     0.29100
F755        F  0.29412755  0.47145028  0.39750961    -0.20300
H756        H  0.29880322  0.46350083  0.45426683     0.17400
H757        H  0.34564214  0.42602666  0.38691530     0.17400
F758        F  0.35117860  0.41916793  0.44386377    -0.20300
C759        C  0.30496803  0.45123223  0.18973721    -0.21800
C760        C  0.32002485  0.43885513  0.20219327    -0.09800
C761        C  0.33086018  0.42567758  0.18333597     0.29100
C762        C  0.32849002  0.42687002  0.15211373    -0.21800
C763        C  0.31607912  0.44197236  0.13956259    -0.09800
C764        C  0.30322975  0.45309822  0.15862512     0.29100
F765        F  0.29066108  0.46745445  0.14719899    -0.20300
H766        H  0.29678574  0.46172905  0.20403699     0.17400
H767        H  0.33849925  0.41817074  0.13781815     0.17400
F768        F  0.34522932  0.41326368  0.19508049    -0.20300
C769        C  0.44271161  0.60980919  0.50366394    -0.21800
C770        C  0.44452911  0.61218207  0.47214821    -0.09800
C771        C  0.42147642  0.59104381  0.45513487     0.29100
C772        C  0.39888882  0.56670365  0.46926235    -0.21800
C773        C  0.39810606  0.56345608  0.50067180    -0.09800
C774        C  0.41961678  0.58601230  0.01783305     0.29100
F775        F  0.42012020  0.58360876  0.04817892    -0.20300
H776        H  0.46021012  0.62550500  0.51734061     0.17400
H777        H  0.38281425  0.54958993  0.45550246     0.17400
F778        F  0.42225031  0.59225773  0.42465734    -0.20300
C779        C  0.42806125  0.53579870  0.37254262    -0.21800
C780        C  0.43013014  0.53819688  0.34106718    -0.09800
C781        C  0.45569425  0.55974608  0.32781595     0.29100
C782        C  0.47711387  0.58079483  0.34584449    -0.21800
C783        C  0.47357237  0.58007227  0.37716039    -0.09800
C784        C  0.44977804  0.55638958  0.39056139     0.29100
F785        F  0.44595671  0.55471747  0.42081685    -0.20300
H786        H  0.40876350  0.51895553  0.38321674     0.17400
H787        H  0.49562252  0.59870316  0.33522139     0.17400
F788        F  0.45883827  0.56216740  0.29749681    -0.20300
C789        C  0.58150336  0.68024347  0.28727013    -0.21800
C790        C  0.56683160  0.68956411  0.26858371    -0.09800
C791        C  0.55301665  0.70316116  0.28117033     0.29100
C792        C  0.55152434  0.70483193  0.31234133    -0.21800
C793        C  0.56416532  0.69335862  0.33126214    -0.09800
C794        C  0.58066406  0.68257793  0.31849571     0.29100
F795        F  0.59352060  0.67170856  0.33607130    -0.20300
H796        H  0.59208918  0.66953772  0.27772189     0.17400
H797        H  0.53895023  0.71350323  0.32172447     0.17400
F798        F  0.53832967  0.71192146  0.26350067    -0.20300
C799        C  0.57950531  0.67409387  0.06773313    -0.21800
C800        C  0.56795058  0.68934960  0.08147762    -0.09800
C801        C  0.56092514  0.70660556  0.06373786     0.29100
C802        C  0.56281130  0.70632813  0.03244093    -0.21800
C803        C  0.57110359  0.68837581  0.01857637    -0.09800
C804        C  0.58078077  0.67331500  0.03638649     0.29100
F805        F  0.58940581  0.65616697  0.02339694    -0.20300
H806        H  0.58501781  0.66071827  0.08106418     0.17400
H807        H  0.55518060  0.71795390  0.01907222     0.17400
F808        F  0.55025154  0.72207902  0.07662166    -0.20300
C809        C  0.41293854  0.58779179  0.26155723    -0.21800
C810        C  0.39299329  0.56424966  0.24438475    -0.09800
C811        C  0.39599733  0.56580679  0.21287744     0.29100
C812        C  0.41990468  0.58915850  0.19928880    -0.21800
C813        C  0.44162205  0.61095610  0.21685971    -0.09800
C814        C  0.43725630  0.61072985  0.24803966     0.29100
F815        F  0.45760402  0.63150280  0.26572406    -0.20300
H816        H  0.41138531  0.58706264  0.28585179     0.17400
H817        H  0.42282273  0.58863982  0.17525330     0.17400
F818        F  0.37717650  0.54362273  0.19542371    -0.20300
C819        C  0.45537372  0.55143841  0.08190680    -0.21800
C820        C  0.42990222  0.53107751  0.09621899    -0.09800
C821        C  0.42858627  0.52993996  0.12779320     0.29100
C822        C  0.45114791  0.55111613  0.14454170    -0.21800
C823        C  0.47491292  0.57373794  0.12992938    -0.09800
C824        C  0.47774472  0.57282307  0.09862129     0.29100
F825        F  0.50103789  0.59390767  0.08399578    -0.20300
H826        H  0.45698265  0.55243385  0.05761345     0.17400
H827        H  0.44869470  0.55134169  0.16869183     0.17400
F828        F  0.40470969  0.50966920  0.14235477    -0.20300
C829        C  0.37132556  0.38898780  0.29416975    -0.21800
C830        C  0.38620379  0.41911794  0.29657638    -0.09800
C831        C  0.41584198  0.43366251  0.30302088     0.29100
C832        C  0.43016178  0.41855431  0.30637603    -0.21800
C833        C  0.41561817  0.38853530  0.30367694    -0.09800
C834        C  0.38590209  0.37371294  0.29768077     0.29100
F835        F  0.37106590  0.34469812  0.29478320    -0.20300
H836        H  0.34856324  0.37732487  0.28913621     0.17400
H837        H  0.45294362  0.43068092  0.31131364     0.17400
F838        F  0.43132928  0.46267109  0.30625521    -0.20300
C839        C  0.36743390  0.38272160  0.04117528    -0.21800
C840        C  0.37863946  0.41055169  0.05294527    -0.09800
C841        C  0.40360371  0.42210820  0.07068669     0.29100
C842        C  0.41840025  0.40737953  0.07426902    -0.21800
C843        C  0.40861880  0.38059046  0.06069620    -0.09800
C844        C  0.38232258  0.36770296  0.04508578     0.29100
F845        F  0.37209563  0.34164175  0.03199781    -0.20300
H846        H  0.34811504  0.37331953  0.02765172     0.17400
H847        H  0.43815229  0.41740120  0.08713733     0.17400
F848        F  0.41426763  0.44818199  0.08397455    -0.20300
C849        C  0.44015386  0.30455694  0.41132945    -0.21800
C850        C  0.43556677  0.32594510  0.39922339    -0.09800
C851        C  0.42994620  0.34310715  0.41857759     0.29100
C852        C  0.43084580  0.34012581  0.44966498    -0.21800
C853        C  0.43820629  0.32066281  0.46166608    -0.09800
C854        C  0.44198111  0.30223230  0.44241622     0.29100
F855        F  0.44914172  0.28323702  0.45364008    -0.20300
H856        H  0.44484025  0.29139343  0.39673241     0.17400
H857        H  0.42823501  0.35469268  0.46426889     0.17400
F858        F  0.42542232  0.36396238  0.40741013    -0.20300
C859        C  0.43211083  0.33639220  0.19923623    -0.21800
C860        C  0.44304127  0.32014302  0.21216210    -0.09800
C861        C  0.45031032  0.30374078  0.19345326     0.29100
C862        C  0.44811585  0.30492057  0.16218898    -0.21800
C863        C  0.43946727  0.32307655  0.14926630    -0.09800
C864        C  0.43071623  0.33822050  0.16803680     0.29100
F865        F  0.42238044  0.35608909  0.15613376    -0.20300
H866        H  0.42661428  0.34933655  0.21321685     0.17400
H867        H  0.45530611  0.29343378  0.14807500     0.17400
F868        F  0.46069063  0.28757094  0.20533755    -0.20300
C869        C  0.76811240  0.56186086  0.43989606    -0.21800
C870        C  0.74217395  0.53601685  0.43501331    -0.09800
C871        C  0.74182161  0.50987538  0.43910974     0.29100
C872        C  0.76687438  0.50981228  0.44732739    -0.21800
C873        C  0.79290526  0.53567263  0.45178048    -0.09800
C874        C  0.79313697  0.56179727  0.44818399     0.29100
F875        F  0.81757810  0.58743476  0.45234984    -0.20300
H876        H  0.76905748  0.58232276  0.43756196     0.17400
H877        H  0.76594347  0.48935731  0.44966463     0.17400
F878        F  0.71727030  0.48423630  0.43543168    -0.20300
C879        C  0.60045548  0.58717856  0.43876252    -0.21800
C880        C  0.62592269  0.59887304  0.42192732    -0.09800
C881        C  0.63740870  0.62682070  0.40995565     0.29100
C882        C  0.62245292  0.64186302  0.41346517    -0.21800
C883        C  0.59598437  0.62910080  0.42885895    -0.09800
C884        C  0.58571989  0.60193811  0.44226647     0.29100
F885        F  0.56099792  0.58924665  0.45856866    -0.20300
H886        H  0.59143824  0.56601807  0.44884169     0.17400
H887        H  0.63083956  0.66279752  0.40307352     0.17400
F888        F  0.66201402  0.63883874  0.39353887    -0.20300
C889        C  0.57564395  0.47807097  0.50214402    -0.21800
C890        C  0.57457661  0.47624185  0.47066303    -0.09800
C891        C  0.55033064  0.45358910  0.45673923     0.29100
C892        C  0.52908680  0.43156348  0.47416418    -0.21800
C893        C  0.53149049  0.43207690  0.50558047    -0.09800
C894        C  0.55415698  0.45625525  0.01957970     0.29100
F895        F  0.55720819  0.45749685  0.04991911    -0.20300
H896        H  0.59409306  0.49546434  0.51326506     0.17400
H897        H  0.51164833  0.41318942  0.46300399     0.17400
F898        F  0.54854382  0.45109129  0.42636002    -0.20300
C899        C  0.58744824  0.42307340  0.39691948    -0.21800
C900        C  0.60818253  0.44521419  0.37865744    -0.09800
C901        C  0.60654995  0.44129686  0.34733246     0.29100
C902        C  0.58347979  0.41667777  0.33457921    -0.21800
C903        C  0.56109837  0.39604581  0.35271192    -0.09800
C904        C  0.56383925  0.39898523  0.38413273     0.29100
F905        F  0.54254397  0.37978719  0.40240038    -0.20300
H906        H  0.58791432  0.42574271  0.42107340     0.17400
H907        H  0.58165514  0.41527316  0.31031890     0.17400
F908        F  0.62606476  0.46223222  0.32894798    -0.20300
C909        C  0.74285326  0.51122102  0.18431690    -0.21800
C910        C  0.74365699  0.53734399  0.17931487    -0.09800
C911        C  0.76956381  0.56326435  0.18448181     0.29100
C912        C  0.79382402  0.56282896  0.19482232    -0.21800
C913        C  0.79284757  0.53666653  0.20030039    -0.09800
C914        C  0.76700576  0.51076990  0.19475797     0.29100
F915        F  0.76498864  0.48485462  0.19891188    -0.20300
H916        H  0.72320286  0.49091532  0.18089498     0.17400
H917        H  0.81352536  0.58308453  0.19824922     0.17400
F918        F  0.77148865  0.58909349  0.17995049    -0.20300
C919        C  0.58390004  0.59778798  0.19766352    -0.21800
C920        C  0.59468119  0.62511534  0.18466214    -0.09800
C921        C  0.62121568  0.63783592  0.16946053     0.29100
C922        C  0.63560989  0.62242753  0.16576171    -0.21800
C923        C  0.62356978  0.59427281  0.17706334    -0.09800
C924        C  0.59805528  0.58249532  0.19393433     0.29100
F925        F  0.58635272  0.55583298  0.20632208    -0.20300
H926        H  0.56384684  0.58775504  0.21010278     0.17400
H927        H  0.65532393  0.63188220  0.15278425     0.17400
F928        F  0.63226009  0.66420589  0.15662228    -0.20300
C929        C  0.55265582  0.44977245  0.20690126    -0.21800
C930        C  0.57717728  0.47233464  0.22034013    -0.09800
C931        C  0.57893561  0.47464727  0.25180574     0.29100
C932        C  0.55766813  0.45308691  0.26952671    -0.21800
C933        C  0.53478652  0.42890354  0.25601958    -0.09800
C934        C  0.53158702  0.42797184  0.22463700     0.29100
F935        F  0.50898404  0.40526101  0.21110500    -0.20300
H936        H  0.55091251  0.44776850  0.18266553     0.17400
H937        H  0.56031587  0.45422439  0.29371487     0.17400
F938        F  0.60207385  0.49677008  0.26536872    -0.20300
C939        C  0.67135177  0.57823639  0.30700568    -0.21800
C940        C  0.68296469  0.56595737  0.32610447    -0.09800
C941        C  0.69771951  0.55317725  0.31371997     0.29100
C942        C  0.69926393  0.55122606  0.28252678    -0.21800
C943        C  0.68654452  0.56240938  0.26331909    -0.09800
C944        C  0.67339853  0.57683496  0.27581807     0.29100
F945        F  0.66033606  0.58733677  0.25803149    -0.20300
H946        H  0.65950969  0.58774878  0.31630021     0.17400
H947        H  0.70932266  0.53985275  0.27337327     0.17400
F948        F  0.70824535  0.54025090  0.33170628    -0.20300
C949        C  0.70208151  0.56658189  0.06361630    -0.21800
C950        C  0.68025205  0.57024481  0.07605183    -0.09800
C951        C  0.66265732  0.57561583  0.05693297     0.29100
C952        C  0.66569166  0.57535047  0.02579167    -0.21800
C953        C  0.68569437  0.56895087  0.01345732    -0.09800
C954        C  0.70449365  0.56543213  0.03247025     0.29100
F955        F  0.72396098  0.55912956  0.02091372    -0.20300
H956        H  0.71565684  0.56218233  0.07796170     0.17400
H957        H  0.65080563  0.57770692  0.01136943     0.17400
F958        F  0.64142632  0.57938969  0.06832325    -0.20300
C959        C  0.58414869  0.41766266  0.07906256    -0.21800
C960        C  0.56179720  0.39698826  0.09717821    -0.09800
C961        C  0.56491894  0.39918672  0.12859766     0.29100
C962        C  0.58882861  0.42279131  0.14147930    -0.21800
C963        C  0.60947129  0.44511849  0.12335311    -0.09800
C964        C  0.60752838  0.44185140  0.09197347     0.29100
F965        F  0.62700824  0.46302709  0.07379214    -0.20300
H966        H  0.58205993  0.41672624  0.05481730     0.17400
H967        H  0.58957792  0.42503185  0.16570529     0.17400
F968        F  0.54368560  0.37987133  0.14685691    -0.20300
C969        C  0.51017161  0.74716789  0.39930111    -0.21800
C970        C  0.53539542  0.74856605  0.41008065    -0.09800
C971        C  0.56101709  0.77551888  0.40978374     0.29100
C972        C  0.56112410  0.80023561  0.39944444    -0.21800
C973        C  0.53584180  0.79885568  0.38884520    -0.09800
C974        C  0.51031877  0.77180995  0.38872281     0.29100
F975        F  0.48534976  0.76900671  0.37836167    -0.20300
H976        H  0.49026060  0.72673436  0.39836708     0.17400
H977        H  0.58105589  0.82065367  0.40028158     0.17400
F978        F  0.58606449  0.77813800  0.41960082    -0.20300
C979        C  0.55944002  0.79328153  0.14513534    -0.21800
C980        C  0.53419776  0.79150565  0.13384676    -0.09800
C981        C  0.50881662  0.76450700  0.13323146     0.29100
C982        C  0.50877702  0.74010373  0.14411680    -0.21800
C983        C  0.53396621  0.74202269  0.15575342    -0.09800
C984        C  0.55940275  0.76895461  0.15599990     0.29100
F985        F  0.58428365  0.77195807  0.16693922    -0.20300
H986        H  0.57926159  0.81377327  0.14639545     0.17400
H987        H  0.48903763  0.71953609  0.14288803     0.17400
F988        F  0.48399166  0.76160670  0.12228853    -0.20300
C989        C  0.54919262  0.85226677  0.23573556    -0.21800
C990        C  0.56152779  0.87567291  0.21566893    -0.09800
C991        C  0.57757873  0.90371987  0.22714548     0.29100
C992        C  0.57922112  0.90823432  0.25816191    -0.21800
C993        C  0.56565603  0.88489733  0.27805962    -0.09800
C994        C  0.55142407  0.85680692  0.26676021     0.29100
F995        F  0.53725835  0.83397391  0.28560629    -0.20300
H996        H  0.53663429  0.83051172  0.22736361     0.17400
H997        H  0.58972439  0.93002235  0.26663773     0.17400
F998        F  0.58934058  0.92686794  0.20846666    -0.20300
C999        C  0.57825357  0.91423745  0.01070822    -0.21800
C1000       C  0.57017696  0.88957616  0.02832429    -0.09800
C1001       C  0.56260351  0.86352294  0.01407920     0.29100
C1002       C  0.56002262  0.86155824  0.48280586    -0.21800
C1003       C  0.56581653  0.88569238  0.46537671    -0.09800
C1004       C  0.57645928  0.91244238  0.47937352     0.29100
F1005       F  0.58228814  0.93614244  0.46310144    -0.20300
H1006       H  0.58420019  0.93454063  0.02133835     0.17400
H1007       H  0.55200450  0.84080453  0.47226032     0.17400
F1008       F  0.55474203  0.83934865  0.03042719    -0.20300
C1009       C  0.76974693  0.21626019  0.36434792    -0.21800
C1010       C  0.74443265  0.21705728  0.36906785    -0.09800
C1011       C  0.74429289  0.24254129  0.36195535     0.29100
C1012       C  0.76883075  0.26634116  0.35025436    -0.21800
C1013       C  0.79416853  0.26556397  0.34550910    -0.09800
C1014       C  0.79438205  0.24018200  0.35282318     0.29100
F1015       F  0.81846393  0.23844405  0.34932317    -0.20300
H1016       H  0.77041307  0.19690812  0.36921183     0.17400
H1017       H  0.76805478  0.28563063  0.34535260     0.17400
F1018       F  0.72029739  0.24445474  0.36553860    -0.20300
C1019       C  0.57444189  0.99258833  0.37014405    -0.21800
C1020       C  0.59021628  0.97827295  0.36900969    -0.09800
C1021       C  0.62026334  0.99470899  0.37256934     0.29100
C1022       C  0.63386966  0.02467810  0.37708104    -0.21800
C1023       C  0.61778562  0.03874302  0.37816853    -0.09800
C1024       C  0.58777668  0.02208925  0.37463047     0.29100
F1025       F  0.57087921  0.03407373  0.37572053    -0.20300
H1026       H  0.55128161  0.98089444  0.36770322     0.17400
H1027       H  0.65698607  0.03685803  0.37979157     0.17400
F1028       F  0.63645127  0.98197738  0.37173869    -0.20300
C1029       C  0.76549807  0.26061301  0.10163621    -0.21800
C1030       C  0.79041346  0.25984577  0.09357609    -0.09800
C1031       C  0.79026400  0.23386237  0.09756766     0.29100
C1032       C  0.76605180  0.20963372  0.10947809    -0.21800
C1033       C  0.74117311  0.21038329  0.11775250    -0.09800
C1034       C  0.74120000  0.23629282  0.11353868     0.29100
F1035       F  0.71770989  0.23817447  0.12054404    -0.20300
H1036       H  0.76495753  0.28033514  0.09932897     0.17400
H1037       H  0.76674470  0.18999348  0.11181983     0.17400
F1038       F  0.81355358  0.23174815  0.09015564    -0.20300
C1039       C  0.60308997  0.01222156  0.15433628    -0.21800
C1040       C  0.62892754  0.02925188  0.13872416    -0.09800
C1041       C  0.64077784  0.01590732  0.12161437     0.29100
C1042       C  0.62521223  0.98593221  0.11787097    -0.21800
C1043       C  0.59794376  0.96940894  0.13123777    -0.09800
C1044       C  0.58773500  0.98265933  0.15070737     0.29100
F1045       F  0.56222693  0.96712884  0.16529918    -0.20300
H1046       H  0.59403812  0.02202698  0.16844793     0.17400
H1047       H  0.63353167  0.97593312  0.10306235     0.17400
F1048       F  0.66603724  0.03185147  0.10679130    -0.20300
C1049       C  0.69230798  0.15195629  0.02125479    -0.21800
C1050       C  0.68292552  0.12725517  0.03920954    -0.09800
C1051       C  0.67237626  0.10044468  0.02513331     0.29100
C1052       C  0.66932497  0.09834488  0.49376216    -0.21800
C1053       C  0.67762983  0.12301086  0.47617730    -0.09800
C1054       C  0.68980262  0.14990991  0.49006329     0.29100
F1055       F  0.69707135  0.17392203  0.47363301    -0.20300
H1056       H  0.70045670  0.17285238  0.03150596     0.17400
H1057       H  0.65968529  0.07741664  0.48325442     0.17400
F1058       F  0.66310924  0.07613236  0.04169274    -0.20300
C1059       C  0.70190037  0.14879538  0.23795835    -0.21800
C1060       C  0.68636192  0.12037484  0.22754402    -0.09800
C1061       C  0.67303996  0.09780359  0.24852210     0.29100
C1062       C  0.67381713  0.10367521  0.27915070    -0.21800
C1063       C  0.68721336  0.13214463  0.28938728    -0.09800
C1064       C  0.70209755  0.15472979  0.26865441     0.29100
F1065       F  0.71597170  0.18249090  0.27790882    -0.20300
H1066       H  0.71195113  0.16650296  0.22212503     0.17400
H1067       H  0.66227853  0.08592068  0.29467916     0.17400
F1068       F  0.65777364  0.07009605  0.23919512    -0.20300
C1069       C  0.43780442  0.21161030  0.27888698    -0.21800
C1070       C  0.46248913  0.20934725  0.28180922    -0.09800
C1071       C  0.48707057  0.23207927  0.29552870     0.29100
C1072       C  0.48740337  0.25714056  0.30410379    -0.21800
C1073       C  0.46330171  0.26011411  0.29949910    -0.09800
C1074       C  0.43808857  0.23664159  0.28761297     0.29100
F1075       F  0.41414953  0.23834976  0.28264901    -0.20300
H1076       H  0.41852514  0.19441489  0.26874037     0.17400
H1077       H  0.50699350  0.27468667  0.31336272     0.17400
F1078       F  0.51120688  0.23059729  0.29995325    -0.20300
C1079       C  0.58068688  0.15363879  0.16974010    -0.21800
C1080       C  0.60005651  0.14906000  0.18664678    -0.09800
C1081       C  0.59197898  0.13800044  0.21611511     0.29100
C1082       C  0.56479440  0.13030043  0.22752308    -0.21800
C1083       C  0.54514651  0.13419218  0.21041764    -0.09800
C1084       C  0.55363142  0.14645371  0.18144651     0.29100
F1085       F  0.53548587  0.15078729  0.16402031    -0.20300
H1086       H  0.58581703  0.16134958  0.14678716     0.17400
H1087       H  0.55929496  0.12165341  0.25010760     0.17400
F1088       F  0.61003645  0.13365286  0.23369296    -0.20300
C1089       C  0.55822876  0.13281102  0.35352903    -0.21800
C1090       C  0.58253818  0.13773024  0.33715991    -0.09800
C1091       C  0.58875703  0.15300171  0.30968087     0.29100
C1092       C  0.57034813  0.16189934  0.29843431    -0.21800
C1093       C  0.54513626  0.15527807  0.31387729    -0.09800
C1094       C  0.53988646  0.14177279  0.34226099     0.29100
F1095       F  0.51590477  0.13551239  0.35820698    -0.20300
H1096       H  0.55349049  0.12223370  0.37524956     0.17400
H1097       H  0.57463018  0.17182674  0.27638660     0.17400
F1098       F  0.61233880  0.15894902  0.29320780    -0.20300
C1099       C  0.44705428  0.21406626  0.02099146    -0.21800
C1100       C  0.47352847  0.21552077  0.01575402    -0.09800
C1101       C  0.49900751  0.24176868  0.02120515     0.29100
C1102       C  0.49783460  0.26561240  0.03180707    -0.21800
C1103       C  0.47134963  0.26405252  0.03730416    -0.09800
C1104       C  0.44587969  0.23787286  0.03161298     0.29100
F1105       F  0.41970302  0.23511699  0.03617515    -0.20300
H1106       H  0.42700895  0.19415965  0.01750821     0.17400
H1107       H  0.51785509  0.28550632  0.03543095     0.17400
F1108       F  0.52516000  0.24438589  0.01696171    -0.20300
C1109       C  0.59174903  0.18000270  0.41308815    -0.21800
C1110       C  0.61324563  0.17887438  0.42992547    -0.09800
C1111       C  0.61159520  0.17877246  0.46145597     0.29100
C1112       C  0.58742050  0.17668634  0.47561021    -0.21800
C1113       C  0.56407865  0.17363318  0.45857935    -0.09800
C1114       C  0.56693267  0.17659326  0.42719639     0.29100
F1115       F  0.54498082  0.17422123  0.41012857    -0.20300
H1116       H  0.59266585  0.18032044  0.38879333     0.17400
H1117       H  0.58570449  0.17441710  0.49984667     0.17400
F1118       F  0.63207147  0.17796243  0.47847961    -0.20300
C1119       C  0.55118245  0.10306340  0.10565686    -0.21800
C1120       C  0.57291545  0.10051532  0.09123782    -0.09800
C1121       C  0.57260549  0.09816034  0.05980884     0.29100
C1122       C  0.55284506  0.10167106  0.04292793    -0.21800
C1123       C  0.53347890  0.10801338  0.05715332    -0.09800
C1124       C  0.53168264  0.10713568  0.08871796     0.29100
F1125       F  0.51217801  0.11172937  0.10313744    -0.20300
H1126       H  0.55098464  0.10464682  0.12989457     0.17400
H1127       H  0.55427871  0.10172624  0.01863929     0.17400
F1128       F  0.59296609  0.09489631  0.04535989    -0.20300
C1129       C  0.43257516  0.08587514  0.39732793    -0.21800
C1130       C  0.43487875  0.10993594  0.41227966    -0.09800
C1131       C  0.43188345  0.13032907  0.39531400     0.29100
C1132       C  0.42925885  0.12780309  0.36377677    -0.21800
C1133       C  0.42951731  0.10491164  0.34872871    -0.09800
C1134       C  0.42998842  0.08334085  0.36611923     0.29100
F1135       F  0.42936610  0.06036414  0.35293081    -0.20300
H1136       H  0.43418436  0.06944353  0.40979316     0.17400
H1137       H  0.42890748  0.14476112  0.35100688     0.17400
F1138       F  0.43372658  0.15373241  0.40878753    -0.20300
C1139       C  0.42966795  0.11616394  0.11693655    -0.21800
C1140       C  0.44816763  0.14095037  0.10036612    -0.09800
C1141       C  0.46410578  0.16720003  0.11594091     0.29100
C1142       C  0.46332209  0.16809780  0.14725126    -0.21800
C1143       C  0.44640650  0.14307890  0.16408465    -0.09800
C1144       C  0.42871966  0.11714255  0.14852981     0.29100
F1145       F  0.41202797  0.09230589  0.16382541    -0.20300
H1146       H  0.41728348  0.09573279  0.10564104     0.17400
H1147       H  0.47686529  0.18839006  0.15841065     0.17400
F1148       F  0.48155401  0.19207246  0.10097062    -0.20300
C1149       C  0.21318399  0.77040654  0.47537832    -0.21800
C1150       C  0.21384418  0.74598149  0.46558522    -0.09800
C1151       C  0.24021241  0.74637697  0.46708241     0.29100
C1152       C  0.26509649  0.77072501  0.47764618    -0.21800
C1153       C  0.26443145  0.79524846  0.48712254    -0.09800
C1154       C  0.23798693  0.79464174  0.48608115     0.29100
F1155       F  0.23593995  0.81749076  0.49537232    -0.20300
H1156       H  0.19320572  0.77062363  0.47535221     0.17400
H1157       H  0.28509720  0.77054946  0.47779106     0.17400
F1158       F  0.24207845  0.72322294  0.45855977    -0.20300
C1159       C  0.42204012  0.02125889  0.52959303    -0.21800
C1160       C  0.41230883  0.03567352  0.01115176    -0.09800
C1161       C  0.38657226  0.01958288  0.99494193     0.29100
C1162       C  0.37168122  0.98935979  0.99624935    -0.21800
C1163       C  0.38251348  0.97507265  0.01350413    -0.09800
C1164       C  0.40735605  0.99137953  0.53088294     0.29100
F1165       F  0.41787846  0.97835401  0.54873102    -0.20300
H1166       H  0.44168337  0.03322780  0.54239730     0.17400
H1167       H  0.35267888  0.97717710  0.98259643     0.17400
F1168       F  0.37709128  0.03291340  0.97617580    -0.20300
C1169       C  0.39895177  0.83251800  0.07440220    -0.21800
C1170       C  0.39968973  0.83798704  0.04344563    -0.09800
C1171       C  0.42284499  0.84044790  0.02634727     0.29100
C1172       C  0.44618874  0.84068545  0.04056106    -0.21800
C1173       C  0.44651648  0.83752589  0.07191104    -0.09800
C1174       C  0.42179783  0.83164393  0.08846163     0.29100
F1175       F  0.42103557  0.82836689  0.11876652    -0.20300
H1176       H  0.38148727  0.83075016  0.08805865     0.17400
H1177       H  0.46491667  0.84535453  0.02728020     0.17400
F1178       F  0.42455927  0.84600333  0.99640345    -0.20300
C1179       C  0.47843772  0.90988882  0.44832727    -0.21800
C1180       C  0.47475762  0.90682949  0.41710097    -0.09800
C1181       C  0.45204400  0.90838123  0.40353322     0.29100
C1182       C  0.43086391  0.90830999  0.42148958    -0.21800
C1183       C  0.43253016  0.90725621  0.45290855    -0.09800
C1184       C  0.45756691  0.91037544  0.46624574     0.29100
F1185       F  0.46028330  0.91024161  0.99656544    -0.20300
H1186       H  0.49627270  0.90947240  0.45906096     0.17400
H1187       H  0.41198594  0.90661724  0.41084879     0.17400
F1188       F  0.44840284  0.90647766  0.37326516    -0.20300
C1189       C  0.23477876  0.79558012  0.23725144    -0.21800
C1190       C  0.26048169  0.79507200  0.24065309    -0.09800
C1191       C  0.26066878  0.76993439  0.23258552     0.29100
C1192       C  0.23589246  0.74620851  0.22122384    -0.21800
C1193       C  0.21018847  0.74668633  0.21775792    -0.09800
C1194       C  0.20990025  0.77173363  0.22606038     0.29100
F1195       F  0.18559019  0.77323603  0.22369636    -0.20300
H1196       H  0.23398897  0.81469882  0.24286497     0.17400
H1197       H  0.23681016  0.72717404  0.21553885     0.17400
F1198       F  0.28494994  0.76836890  0.23485659    -0.20300
C1199       C  0.40421911  0.98914883  0.23124448    -0.21800
C1200       C  0.37847281  0.97396460  0.24753052    -0.09800
C1201       C  0.36558146  0.98900360  0.25916897     0.29100
C1202       C  0.37949040  0.01901012  0.25634763    -0.21800
C1203       C  0.40637851  0.03435671  0.24197209    -0.09800
C1204       C  0.41802417  0.01895044  0.22837252     0.29100
F1205       F  0.44358133  0.03279495  0.21360976    -0.20300
H1206       H  0.41428742  0.97798638  0.22156933     0.17400
H1207       H  0.37021604  0.03036486  0.26728606     0.17400
F1208       F  0.34081593  0.97509988  0.27527146    -0.20300
C1209       C  0.39759952  0.83920587  0.33150428    -0.21800
C1210       C  0.39535582  0.83901173  0.30005033    -0.09800
C1211       C  0.41527926  0.83549192  0.28274601     0.29100
C1212       C  0.43864132  0.83542157  0.29657712    -0.21800
C1213       C  0.44213378  0.83789975  0.32792354    -0.09800
C1214       C  0.42042206  0.83815817  0.34538759     0.29100
F1215       F  0.42296963  0.84085428  0.37571476    -0.20300
H1216       H  0.38271881  0.84211515  0.34531749     0.17400
H1217       H  0.45511772  0.83546754  0.28259540     0.17400
F1218       F  0.41416885  0.83552085  0.25226732    -0.20300
C1219       C  0.30470807  0.86326981  0.35986556    -0.21800
C1220       C  0.32346286  0.89014009  0.34700050    -0.09800
C1221       C  0.33849929  0.91420620  0.36572782     0.29100
C1222       C  0.33637341  0.91091418  0.39698676    -0.21800
C1223       C  0.31987964  0.88350566  0.40977145    -0.09800
C1224       C  0.30320582  0.85983566  0.39105089     0.29100
F1225       F  0.28688669  0.83307965  0.40288776    -0.20300
H1226       H  0.29310267  0.84449080  0.34578784     0.17400
H1227       H  0.34947145  0.92932354  0.41107947     0.17400
F1228       F  0.35645116  0.94056274  0.35378733    -0.20300
C1229       C  0.33694215  0.90932821  0.11575956    -0.21800
C1230       C  0.32278989  0.88504753  0.09727383    -0.09800
C1231       C  0.30430745  0.85809345  0.11018413     0.29100
C1232       C  0.30197222  0.85519310  0.14142872    -0.21800
C1233       C  0.31751567  0.87922085  0.16000152    -0.09800
C1234       C  0.33404768  0.90656049  0.14695737     0.29100
F1235       F  0.34969470  0.93008417  0.16433046    -0.20300
H1236       H  0.35146741  0.93022758  0.10604514     0.17400
H1237       H  0.28926582  0.83393901  0.15119037     0.17400
F1238       F  0.29089291  0.83423820  0.09280652    -0.20300
C1239       C  0.42583138  0.89546320  0.17171238    -0.21800
C1240       C  0.42803477  0.89773645  0.20313657    -0.09800
C1241       C  0.45307071  0.90147557  0.21722321     0.29100
C1242       C  0.47412711  0.90005015  0.20029413    -0.21800
C1243       C  0.47091066  0.89584928  0.16914054    -0.09800
C1244       C  0.44722077  0.89481514  0.15474856     0.29100
F1245       F  0.44340058  0.89053035  0.12465720    -0.20300
H1246       H  0.40678083  0.89265121  0.16040167     0.17400
H1247       H  0.49237563  0.90102262  0.21165201     0.17400
F1248       F  0.45609110  0.90398240  0.24753169    -0.20300
O1249       O  0.37803936  0.87516122  0.70984145    -0.82300
C1250       C  0.33097704  0.89173827  0.81501157     0.97100
O1251       O  0.35729301  0.90578833  0.80771142    -0.71400
O1252       O  0.37499449  0.86895519  0.79770996    -0.75000
Al1253     Al  0.37781446  0.90043431  0.77539665     1.49000
C1254       C  0.37717314  0.84906943  0.78544112     0.92400
O1255       O  0.31080253  0.82176699  0.75132456    -0.81200
O1256       O  0.32171905  0.89255629  0.71145287    -0.74700
Al1257     Al  0.34492714  0.85002845  0.73198860     1.90100
O1258       O  0.28809549  0.84570001  0.74699422    -0.73800
O1259       O  0.34053707  0.92632285  0.75904176    -0.73700
O1260       O  0.31172158  0.87816082  0.79555337    -0.79300
O1261       O  0.38428984  0.93392755  0.75511095    -0.77500
O1262       O  0.34678480  0.87835521  0.75380068    -1.13700
O1263       O  0.40496344  0.89977444  0.74783820    -0.72800
C1264       C  0.40247206  0.89128741  0.72099375     0.97900
C1265       C  0.28763289  0.82198878  0.74791922     0.94300
Al1266     Al  0.31769554  0.88508237  0.75350286     1.55600
O1267       O  0.36729113  0.84073457  0.75923900    -0.77500
C1268       C  0.36701107  0.94313716  0.75399360     0.98400
C1269       C  0.32064408  0.87495449  0.69207590     0.93300
O1270       O  0.32351066  0.85388903  0.69961095    -0.82800
O1271       O  0.38245718  0.88101201  0.95849735    -0.82300
C1272       C  0.33154012  0.88728460  0.56573106     0.97100
O1273       O  0.35813179  0.90032680  0.56005244    -0.71400
O1274       O  0.37647321  0.86521887  0.54529854    -0.75000
Al1275     Al  0.37987437  0.89875112  0.52716214     1.49000
C1276       C  0.38073521  0.84785119  0.53049972     0.92400
O1277       O  0.31519265  0.82234058  0.99584840    -0.81200
O1278       O  0.32561195  0.89554682  0.96183767    -0.74700
Al1279     Al  0.34940029  0.85289397  0.97855582     1.90100
O1280       O  0.29178478  0.84593861  0.99477657    -0.73800
O1281       O  0.34317538  0.92638358  0.01194311    -0.73700
O1282       O  0.31310607  0.87592987  0.54507573    -0.79300
O1283       O  0.38716651  0.93423460  0.51216984    -0.77500
O1284       O  0.34988373  0.87894224  0.00331064    -1.13700
O1285       O  0.40799831  0.90179395  0.99878167    -0.72800
C1286       C  0.40635221  0.89698075  0.97086796     0.97900
C1287       C  0.29171832  0.82234539  0.99402243     0.94300
Al1288     Al  0.32064847  0.88538614  0.00350621     1.55600
O1289       O  0.37234740  0.84236823  0.50350782    -0.77500
C1290       C  0.37006784  0.94360646  0.51204223     0.98400
C1291       C  0.32431033  0.87875539  0.94137099     0.93300
O1292       O  0.32780493  0.85782930  0.94738603    -0.82800
O1293       O  0.51071329  0.13534881  0.54973598    -0.82300
C1294       C  0.44444399  0.11451559  0.94425097     0.97100
O1295       O  0.45928381  0.10363955  0.95237874    -0.71400
O1296       O  0.51373270  0.14157386  0.96151778    -0.75000
Al1297     Al  0.48502154  0.10999939  0.98423484     1.49000
C1298       C  0.53580394  0.16193312  0.97354749     0.92400
O1299       O  0.49764914  0.18900005  0.50747618    -0.81200
O1300       O  0.43704415  0.12064239  0.54998660    -0.74700
Al1301     Al  0.50321449  0.16071830  0.52704614     1.90100
O1302       O  0.45050482  0.16481413  0.50998422    -0.73800
O1303       O  0.42138087  0.08351345  0.50347382    -0.73700
O1304       O  0.43856801  0.12864501  0.96285534    -0.79300
O1305       O  0.45797003  0.07637839  0.00439116    -0.77500
O1306       O  0.47597105  0.13202732  0.50568773    -1.13700
O1307       O  0.51264402  0.11084033  0.51161347    -0.72800
C1308       C  0.51759753  0.11812484  0.53882311     0.97900
C1309       C  0.47401160  0.18860312  0.50952381     0.94300
Al1310     Al  0.43985009  0.12504215  0.50634025     1.55600
O1311       O  0.53454124  0.16967803  0.49997975    -0.77500
C1312       C  0.43136384  0.06684683  0.50635147     0.98400
C1313       C  0.45460933  0.13961576  0.56803976     0.93300
O1314       O  0.47918612  0.15834350  0.55903386    -0.82800
O1315       O  0.47251948  0.16428274  0.70931078    -0.82300
C1316       C  0.43366247  0.10578109  0.81550936     0.97100
O1317       O  0.42870044  0.12195998  0.79908741    -0.71400
O1318       O  0.44046757  0.16264610  0.75912954    -0.75000
Al1319     Al  0.43098237  0.12280495  0.75614185     1.49000
C1320       C  0.46306709  0.18414425  0.76938341     0.92400
O1321       O  0.52404005  0.16657294  0.77223929    -0.81200
O1322       O  0.50810064  0.11449820  0.74845081    -0.74700
Al1323     Al  0.49528999  0.16269781  0.74243889     1.90100
O1324       O  0.49672834  0.13160460  0.80300797    -0.73800
O1325       O  0.45145349  0.07666099  0.74605223    -0.73700
O1326       O  0.44403999  0.09151718  0.80379395    -0.79300
O1327       O  0.41353235  0.08100990  0.75339462    -0.77500
O1328       O  0.46691936  0.13018086  0.75713637    -1.13700
O1329       O  0.43145600  0.12348739  0.71344408    -0.72800
C1330       C  0.45003535  0.14376840  0.69734179     0.97900
C1331       C  0.52075721  0.15263553  0.79649448     0.94300
Al1332     Al  0.47445718  0.10523876  0.77385281     1.55600
O1333       O  0.48665628  0.18474195  0.76821757    -0.77500
C1334       C  0.42451898  0.06577386  0.74622659     0.98400
C1335       C  0.51811947  0.12964287  0.72471513     0.93300
O1336       O  0.50721128  0.14400066  0.71526334    -0.82800
O1337       O  0.62280230  0.12522324  0.59524985    -0.82300
C1338       C  0.67831160  0.11489790  0.69555615     0.97100
O1339       O  0.65217986  0.09770236  0.68952925    -0.71400
O1340       O  0.63239098  0.13215765  0.68244101    -0.75000
Al1341     Al  0.62872374  0.10143350  0.65960155     1.49000
C1342       C  0.62431130  0.14830106  0.67139550     0.92400
O1343       O  0.69114241  0.18218691  0.63242656    -0.81200
O1344       O  0.68136967  0.11223031  0.59049901    -0.74700
Al1345     Al  0.65614377  0.15201576  0.61540301     1.90100
O1346       O  0.71508916  0.15982290  0.62466421    -0.73800
O1347       O  0.66726189  0.07849738  0.63964332    -0.73700
O1348       O  0.69625896  0.12830432  0.67472464    -0.79300
O1349       O  0.62262113  0.06883235  0.63925387    -0.77500
O1350       O  0.65760021  0.12454741  0.63588679    -1.13700
O1351       O  0.59857987  0.10004624  0.63460303    -0.72800
C1352       C  0.59931668  0.10801458  0.60768384     0.97900
C1353       C  0.71463750  0.18303951  0.62654190     0.94300
Al1354     Al  0.68785370  0.12003231  0.63276288     1.55600
O1355       O  0.63274981  0.15852501  0.64511024    -0.77500
C1356       C  0.64053655  0.06048111  0.63859930     0.98400
C1357       C  0.68036650  0.12971171  0.57201965     0.93300
O1358       O  0.67654329  0.14977831  0.58116933    -0.82800
O1359       O  0.62787354  0.14158789  0.83871885    -0.82300
C1360       C  0.67041700  0.12077899  0.94411105     0.97100
O1361       O  0.64421108  0.10713367  0.93645314    -0.71400
O1362       O  0.63245665  0.14835595  0.92699598    -0.75000
Al1363     Al  0.62557894  0.11584914  0.90432552     1.49000
C1364       C  0.63105921  0.16880551  0.91491093     0.92400
O1365       O  0.69484048  0.19149527  0.88039500    -0.81200
O1366       O  0.68058610  0.11969476  0.84103759    -0.74700
Al1367     Al  0.66103095  0.16523912  0.86062093     1.90100
O1368       O  0.71596813  0.16612133  0.87608444    -0.73800
O1369       O  0.65852756  0.08564068  0.88823007    -0.73700
O1370       O  0.69003893  0.13379980  0.92477345    -0.79300
O1371       O  0.61621071  0.08178722  0.88360892    -0.77500
O1372       O  0.65702075  0.13609114  0.88259021    -1.13700
O1373       O  0.59995108  0.12106444  0.87738105    -0.72800
C1374       C  0.60382431  0.13169921  0.85112386     0.97900
C1375       C  0.71736466  0.19035126  0.87683572     0.94300
Al1376     Al  0.68434654  0.12703677  0.88277707     1.55600
O1377       O  0.64016497  0.17660113  0.88822792    -0.77500
C1378       C  0.63167845  0.07033868  0.88335405     0.98400
C1379       C  0.68330229  0.13761573  0.82108183     0.93300
O1380       O  0.68165762  0.15959335  0.82790238    -0.82800
O1381       O  0.49733612  0.87224782  0.66424099    -0.82300
C1382       C  0.56378671  0.88992478  0.56043677     0.97100
O1383       O  0.55220005  0.90430733  0.56806249    -0.71400
O1384       O  0.49700020  0.86724286  0.57615053    -0.75000
Al1385     Al  0.52525495  0.89803423  0.59937345     1.49000
C1386       C  0.47423977  0.84715953  0.58769362     0.92400
O1387       O  0.51077984  0.81831437  0.62413029    -0.81200
O1388       O  0.57150843  0.88807540  0.66397000    -0.74700
Al1389     Al  0.50533937  0.84694548  0.64265053     1.90100
O1390       O  0.55768440  0.84202588  0.62809630    -0.73800
O1391       O  0.58808780  0.92271605  0.61701836    -0.73700
O1392       O  0.56833667  0.87529467  0.57963216    -0.79300
O1393       O  0.55207321  0.93050262  0.62079915    -0.77500
O1394       O  0.53291900  0.87522203  0.62116956    -1.13700
O1395       O  0.49658837  0.89707014  0.62558427    -0.72800
C1396       C  0.48983704  0.88864947  0.65238033     0.97900
C1397       C  0.53414776  0.81844543  0.62716618     0.94300
Al1398     Al  0.56860663  0.88139232  0.62192563     1.55600
O1399       O  0.47463832  0.83832777  0.61409110    -0.77500
C1400       C  0.57854077  0.93929896  0.62280133     0.98400
C1401       C  0.55417854  0.87103437  0.68347693     0.93300
O1402       O  0.52977383  0.85041534  0.67590631    -0.82800
O1403       O  0.49967922  0.88178888  0.91358926    -0.82300
C1404       C  0.56060625  0.88985067  0.80920699     0.97100
O1405       O  0.54659221  0.90244547  0.81355533    -0.71400
O1406       O  0.49300124  0.86465550  0.82685219    -0.75000
Al1407     Al  0.52134457  0.89921050  0.84519523     1.49000
C1408       C  0.47082019  0.84745423  0.84142752     0.92400
O1409       O  0.51181142  0.82505712  0.87869970    -0.81200
O1410       O  0.57207571  0.89923207  0.91369215    -0.74700
Al1411     Al  0.50630464  0.85443962  0.89496559     1.90100
O1412       O  0.55904727  0.85003615  0.88134147    -0.73800
O1413       O  0.58562517  0.93103634  0.86422955    -0.73700
O1414       O  0.56855303  0.88035731  0.83084738    -0.79300
O1415       O  0.54734537  0.93497613  0.86058535    -0.77500
O1416       O  0.53216658  0.88101932  0.87058792    -1.13700
O1417       O  0.49415178  0.90053961  0.87197367    -0.72800
C1418       C  0.49102745  0.89660387  0.90006948     0.97900
C1419       C  0.53561329  0.82589197  0.88159746     0.94300
Al1420     Al  0.56856742  0.88951800  0.87213131     1.55600
O1421       O  0.47313418  0.84248760  0.86882590    -0.77500
C1422       C  0.57393723  0.94646126  0.86442256     0.98400
C1423       C  0.55651776  0.88171157  0.93381809     0.93300
O1424       O  0.53229172  0.86040563  0.92734666    -0.82800
O1425       O  0.62693445  0.49857806  0.71284340    -0.82300
C1426       C  0.67278444  0.56346011  0.60797071     0.97100
O1427       O  0.64646904  0.54991796  0.61511496    -0.71400
O1428       O  0.63030128  0.49560644  0.62475979    -0.75000
Al1429     Al  0.62642254  0.52344741  0.64707939     1.49000
C1430       C  0.62795114  0.47351299  0.63731011     0.92400
O1431       O  0.69339753  0.51333333  0.67053612    -0.81200
O1432       O  0.68202657  0.57195367  0.71184749    -0.74700
Al1433     Al  0.65971710  0.50679898  0.69056569     1.90100
O1434       O  0.71591689  0.56022166  0.67523623    -0.73800
O1435       O  0.66250580  0.58692069  0.66489528    -0.73700
O1436       O  0.69209679  0.56970413  0.62747890    -0.79300
O1437       O  0.61907442  0.54946881  0.66722813    -0.77500
O1438       O  0.65744299  0.53318203  0.66888829    -1.13700
O1439       O  0.59963574  0.49505597  0.67461387    -0.72800
C1440       C  0.60248614  0.49022106  0.70182907     0.97900
C1441       C  0.71649976  0.53707314  0.67346742     0.94300
Al1442     Al  0.68604089  0.56944510  0.66960990     1.55600
O1443       O  0.63731622  0.47501728  0.66371862    -0.77500
C1444       C  0.63585970  0.57610358  0.66954816     0.98400
C1445       C  0.68352909  0.55541010  0.73102059     0.93300
O1446       O  0.68142041  0.53195257  0.72296900    -0.82800
O1447       O  0.62473281  0.50329830  0.96533677    -0.82300
C1448       C  0.67494719  0.56169863  0.85801495     0.97100
O1449       O  0.64857323  0.55013705  0.86457067    -0.71400
O1450       O  0.63011991  0.49590992  0.87790309    -0.75000
Al1451     Al  0.62711401  0.52555429  0.89743967     1.49000
C1452       C  0.62660823  0.47403433  0.89202598     0.92400
O1453       O  0.69157687  0.51332371  0.92694166    -0.81200
O1454       O  0.68234446  0.57618030  0.96131035    -0.74700
Al1455     Al  0.65781069  0.50927841  0.94472210     1.90100
O1456       O  0.71578753  0.56042532  0.92858931    -0.73800
O1457       O  0.66467572  0.58986200  0.91175582    -0.73700
O1458       O  0.69371603  0.56837252  0.87823541    -0.79300
O1459       O  0.62071165  0.55339877  0.91477641    -0.77500
O1460       O  0.65735955  0.53520875  0.92050692    -1.13700
O1461       O  0.59901598  0.49891219  0.92542932    -0.72800
C1462       C  0.60068296  0.49448113  0.95307111     0.97900
C1463       C  0.71527957  0.53660148  0.92898714     0.94300
Al1464     Al  0.68696580  0.57099253  0.91982474     1.55600
O1465       O  0.63510703  0.47636979  0.91897589    -0.77500
C1466       C  0.63801221  0.58004147  0.91578387     0.98400
C1467       C  0.68280351  0.56026623  0.98192657     0.93300
O1468       O  0.67943310  0.53581802  0.97611267    -0.82800
O1469       O  0.50463587  0.38179460  0.51026874    -0.82300
C1470       C  0.44510132  0.33078902  0.61724438     0.97100
O1471       O  0.45753135  0.35716606  0.61060712    -0.71400
O1472       O  0.51126826  0.37473585  0.59745378    -0.75000
Al1473     Al  0.48215119  0.37860637  0.57811781     1.49000
C1474       C  0.53322969  0.37850315  0.58346885     0.92400
O1475       O  0.49402103  0.31416329  0.54764185    -0.81200
O1476       O  0.43136057  0.32390829  0.01381778    -0.74700
Al1477     Al  0.49829524  0.34828812  0.53040306     1.90100
O1478       O  0.44692281  0.29018784  0.54620280    -0.73800
O1479       O  0.41798715  0.34148777  0.56332954    -0.73700
O1480       O  0.43876656  0.31198655  0.59712052    -0.79300
O1481       O  0.45442659  0.38564094  0.56141971    -0.77500
O1482       O  0.47232361  0.34858938  0.55468201    -1.13700
O1483       O  0.50902436  0.40696818  0.55053896    -0.72800
C1484       C  0.51348030  0.40567942  0.52287376     0.97900
C1485       C  0.47067157  0.29058124  0.54515381     0.94300
Al1486     Al  0.43651098  0.31905875  0.55524094     1.55600
O1487       O  0.53112741  0.37043997  0.55641472    -0.77500
C1488       C  0.42774091  0.36833687  0.56148492     0.98400
C1489       C  0.44721535  0.32362582  0.99310892     0.93300
O1490       O  0.47180082  0.32723046  0.99875348    -0.82800
O1491       O  0.50816465  0.37895723  0.76311767    -0.82300
C1492       C  0.44231071  0.33391337  0.86746274     0.97100
O1493       O  0.45717635  0.36030386  0.86096310    -0.71400
O1494       O  0.51056062  0.37406314  0.85125073    -0.75000
Al1495     Al  0.48389821  0.37992421  0.82919668     1.49000
C1496       C  0.53274007  0.37683786  0.83868620     0.92400
O1497       O  0.49039718  0.31101339  0.80539368    -0.81200
O1498       O  0.43442374  0.32652067  0.76321698    -0.74700
Al1499     Al  0.49866357  0.34558306  0.78533383     1.90100
O1500       O  0.44357555  0.29077538  0.80017703    -0.73800
O1501       O  0.42038161  0.34691028  0.81016438    -0.73700
O1502       O  0.43488949  0.31487734  0.84749196    -0.79300
O1503       O  0.45918823  0.38932899  0.80974426    -0.77500
O1504       O  0.47288349  0.34904862  0.80684777    -1.13700
O1505       O  0.51268200  0.40621475  0.80174358    -0.72800
C1506       C  0.51703419  0.40341941  0.77437530     0.97900
C1507       C  0.46582825  0.28864623  0.80293640     0.94300
Al1508     Al  0.43610503  0.32179687  0.80547268     1.55600
O1509       O  0.53108021  0.36743119  0.81226309    -0.77500
C1510       C  0.43236449  0.37393186  0.80773020     0.98400
C1511       C  0.45025305  0.32350159  0.74439841     0.93300
O1512       O  0.47316387  0.32449424  0.75275413    -0.82800
O1513       O  0.50172680  0.62398154  0.63237202    -0.82300
C1514       C  0.56039753  0.67933059  0.73758130     0.97100
O1515       O  0.54613106  0.65254298  0.73347186    -0.71400
O1516       O  0.49243985  0.63432126  0.71861520    -0.75000
Al1517     Al  0.52206426  0.62954347  0.70151044     1.49000
C1518       C  0.47060287  0.62914129  0.70348836     0.92400
O1519       O  0.51071253  0.69196774  0.66609364    -0.81200
O1520       O  0.57358839  0.68182073  0.63334116    -0.74700
Al1521     Al  0.50686325  0.65767575  0.65047722     1.90100
O1522       O  0.55804965  0.71597739  0.66492226    -0.73800
O1523       O  0.58665588  0.66505820  0.68399688    -0.73700
O1524       O  0.56778861  0.69676410  0.71587862    -0.79300
O1525       O  0.54966127  0.62135678  0.68767819    -0.77500
O1526       O  0.53265920  0.65838449  0.67577699    -1.13700
O1527       O  0.49594329  0.60010005  0.67440896    -0.72800
C1528       C  0.49267324  0.60055102  0.64627098     0.97900
C1529       C  0.53424762  0.71548767  0.66374433     0.94300
Al1530     Al  0.56870073  0.68762759  0.67480239     1.55600
O1531       O  0.47334294  0.63569199  0.67587919    -0.77500
C1532       C  0.57629275  0.63812053  0.68532750     0.98400
C1533       C  0.55808795  0.68310226  0.61284737     0.93300
O1534       O  0.53319858  0.67843972  0.61867713    -0.82800
O1535       O  0.49943970  0.63014387  0.88256535    -0.82300
C1536       C  0.56353620  0.68040254  0.98695377     0.97100
O1537       O  0.54984450  0.65393673  0.98078758    -0.71400
O1538       O  0.49537794  0.63619457  0.97032764    -0.75000
Al1539     Al  0.52395997  0.63261279  0.94914200     1.49000
C1540       C  0.47273388  0.63186156  0.95741665     0.92400
O1541       O  0.51175680  0.69803538  0.92081385    -0.81200
O1542       O  0.57257720  0.68766374  0.88281409    -0.74700
Al1543     Al  0.50640557  0.66346495  0.90325695     1.90100
O1544       O  0.55889169  0.72134948  0.91748238    -0.73800
O1545       O  0.58778208  0.66917282  0.93106237    -0.73700
O1546       O  0.56927252  0.69919085  0.96683983    -0.79300
O1547       O  0.55079750  0.62542474  0.93069408    -0.77500
O1548       O  0.53320644  0.66287453  0.92593410    -1.13700
O1549       O  0.49621096  0.60442071  0.92220881    -0.72800
C1550       C  0.49134123  0.60613348  0.89473080     0.97900
C1551       C  0.53536608  0.72146350  0.91760160     0.94300
Al1552     Al  0.56928527  0.69212046  0.92479999     1.55600
O1553       O  0.47410074  0.64071507  0.93063941    -0.77500
C1554       C  0.57752052  0.64220847  0.92984068     0.98400
C1555       C  0.55606539  0.68863266  0.86329774     0.93300
O1556       O  0.53165338  0.68463985  0.87066542    -0.82800
O1557       O  0.37977139  0.50725014  0.58971877    -0.82300
C1558       C  0.33095543  0.44623128  0.98394894     0.97100
O1559       O  0.35720334  0.45785337  0.99090487    -0.71400
O1560       O  0.37597070  0.51261957  0.50189280    -0.75000
Al1561     Al  0.37817923  0.48312074  0.52322993     1.49000
C1562       C  0.37924231  0.53482946  0.51491763     0.92400
O1563       O  0.31256235  0.49575789  0.55025824    -0.81200
O1564       O  0.32159647  0.43390062  0.58795005    -0.74700
Al1565     Al  0.34679071  0.50063161  0.56842067     1.90100
O1566       O  0.28900664  0.44868831  0.55307527    -0.73800
O1567       O  0.34026781  0.41920542  0.53993471    -0.73700
O1568       O  0.31187875  0.43986086  0.50384099    -0.79300
O1569       O  0.38416078  0.45569004  0.54241450    -0.77500
O1570       O  0.34752618  0.47408438  0.54566812    -1.13700
O1571       O  0.40589505  0.51003549  0.55074639    -0.72800
C1572       C  0.40383566  0.51458348  0.57818338     0.97900
C1573       C  0.28904111  0.47223422  0.55312750     0.94300
Al1574     Al  0.31792337  0.43820223  0.54588967     1.55600
O1575       O  0.36979243  0.53295519  0.54145958    -0.77500
C1576       C  0.36679991  0.42918037  0.54479538     0.98400
C1577       C  0.32082662  0.45035327  0.60762796     0.93300
O1578       O  0.32519373  0.47498314  0.60055241    -0.82800
O1579       O  0.38012455  0.51276932  0.83520253    -0.82300
C1580       C  0.32953641  0.44554577  0.73343525     0.97100
O1581       O  0.35626262  0.45988021  0.73841432    -0.71400
O1582       O  0.37146555  0.51378904  0.74743917    -0.75000
Al1583     Al  0.37773816  0.48722795  0.76917775     1.49000
C1584       C  0.37477703  0.53622952  0.75974581     0.92400
O1585       O  0.31090737  0.49554210  0.79716808    -0.81200
O1586       O  0.32664761  0.43910775  0.83784774    -0.74700
Al1587     Al  0.34605591  0.50348233  0.81499181     1.90100
O1588       O  0.28979381  0.44880293  0.80357329    -0.73800
O1589       O  0.34468351  0.42404406  0.78962713    -0.73700
O1590       O  0.31148314  0.43896111  0.75442697    -0.79300
O1591       O  0.38730592  0.46255030  0.78811077    -0.77500
O1592       O  0.34793521  0.47706234  0.79321299    -1.13700
O1593       O  0.40581897  0.51647353  0.79538633    -0.72800
C1594       C  0.40414107  0.52113098  0.82297752     0.97900
C1595       C  0.28834430  0.47153074  0.80170027     0.94300
Al1596     Al  0.32021314  0.44048777  0.79595771     1.55600
O1597       O  0.36678392  0.53521167  0.78674640    -0.77500
C1598       C  0.37177536  0.43588973  0.79139041     0.98400
C1599       C  0.32476051  0.45539765  0.85691074     0.93300
O1600       O  0.32641582  0.47868753  0.84870376    -0.82800
O1601       O  0.13228683  0.50737216  0.54571785    -0.82300
C1602       C  0.11418072  0.44605507  0.65281971     0.97100
O1603       O  0.10169829  0.45972177  0.64541489    -0.71400
O1604       O  0.13951886  0.51360063  0.63340155    -0.75000
Al1605     Al  0.10717884  0.48475956  0.61230777     1.49000
C1606       C  0.15921495  0.53541491  0.62023467     0.92400
O1607       O  0.18415584  0.49406221  0.58917244    -0.81200
O1608       O  0.11246409  0.43456702  0.54887046    -0.74700
Al1609     Al  0.15684663  0.49994866  0.56858742     1.90100
O1610       O  0.15951766  0.44709055  0.58504519    -0.73800
O1611       O  0.07804037  0.42035369  0.59627998    -0.73700
O1612       O  0.12604032  0.43848420  0.63322406    -0.79300
O1613       O  0.07288190  0.45798109  0.59388766    -0.77500
O1614       O  0.12796470  0.47422527  0.59090881    -1.13700
O1615       O  0.10843445  0.51199718  0.58325755    -0.72800
C1616       C  0.11726161  0.51700889  0.55636531     0.97900
C1617       C  0.18358809  0.47045404  0.58640074     0.94300
Al1618     Al  0.11970704  0.43785310  0.59103000     1.55600
O1619       O  0.16693525  0.53300651  0.59405916    -0.77500
C1620       C  0.06206096  0.43118446  0.59320509     0.98400
C1621       C  0.13060806  0.45070944  0.52943255     0.93300
O1622       O  0.15284185  0.47374941  0.53723022    -0.82800
O1623       O  0.13235404  0.50607165  0.79329819    -0.82300
C1624       C  0.11589275  0.44800893  0.90229127     0.97100
O1625       O  0.10208734  0.46028199  0.89445538    -0.71400
O1626       O  0.13969117  0.51414391  0.88116930    -0.75000
Al1627     Al  0.10753184  0.48487078  0.86035552     1.49000
C1628       C  0.15951349  0.53570522  0.86778901     0.92400
O1629       O  0.18443912  0.49427587  0.83784985    -0.81200
O1630       O  0.11267478  0.43328105  0.79954223    -0.74700
Al1631     Al  0.15706456  0.49942588  0.81673985     1.90100
O1632       O  0.16029853  0.44727705  0.83471755    -0.73800
O1633       O  0.07934315  0.42040825  0.84718470    -0.73700
O1634       O  0.12815951  0.44062487  0.88305416    -0.79300
O1635       O  0.07380363  0.45762330  0.84162529    -0.77500
O1636       O  0.12855476  0.47422456  0.83967697    -1.13700
O1637       O  0.10865417  0.51160247  0.83033062    -0.72800
C1638       C  0.11722391  0.51580966  0.80328506     0.97900
C1639       C  0.18414167  0.47082141  0.83539399     0.94300
Al1640     Al  0.12078155  0.43806286  0.84125503     1.55600
O1641       O  0.16711245  0.53300614  0.84159903    -0.77500
C1642       C  0.06361227  0.43093614  0.84087448     0.98400
C1643       C  0.13015283  0.44890254  0.77940722     0.93300
O1644       O  0.15269502  0.47220696  0.78603549    -0.82800
O1645       O  0.13164977  0.62933643  0.74602490    -0.82300
C1646       C  0.11685506  0.67636958  0.64030499     0.97100
O1647       O  0.10370122  0.64983623  0.64669744    -0.71400
O1648       O  0.14209343  0.63475195  0.65833931    -0.75000
Al1649     Al  0.10885122  0.62929025  0.67905771     1.49000
C1650       C  0.16117673  0.63212136  0.67184723     0.92400
O1651       O  0.18426338  0.69705750  0.70581432    -0.81200
O1652       O  0.11109301  0.68218844  0.74401653    -0.74700
Al1653     Al  0.15667411  0.66272899  0.72478587     1.90100
O1654       O  0.15917907  0.71858545  0.71040399    -0.73800
O1655       O  0.07882164  0.66303920  0.69511953    -0.73700
O1656       O  0.12835995  0.69519907  0.66056572    -0.79300
O1657       O  0.07410429  0.62034162  0.69715888    -0.77500
O1658       O  0.12856684  0.65991996  0.70189341    -1.13700
O1659       O  0.10983479  0.60223003  0.70692000    -0.72800
C1660       C  0.11773486  0.60499310  0.73406377     0.97900
C1661       C  0.18332814  0.71976068  0.70969700     0.94300
Al1662     Al  0.12004767  0.68773870  0.70228579     1.55600
O1663       O  0.16800472  0.64131101  0.69848454    -0.77500
C1664       C  0.06302408  0.63597244  0.69758659     0.98400
C1665       C  0.12876363  0.68428961  0.76391202     0.93300
O1666       O  0.15102189  0.68331633  0.75695486    -0.82800
O1667       O  0.13241411  0.63053745  0.49806614    -0.82300
C1668       C  0.11626614  0.67492387  0.89097250     0.97100
O1669       O  0.10243416  0.64872353  0.89884153    -0.71400
O1670       O  0.13929909  0.63142416  0.91033140    -0.75000
Al1671     Al  0.10763186  0.62879835  0.93192668     1.49000
C1672       C  0.15911552  0.62942435  0.92311356     0.92400
O1673       O  0.18613784  0.69582159  0.95516129    -0.81200
O1674       O  0.11514099  0.68572945  0.49418850    -0.74700
Al1675     Al  0.15778996  0.66257711  0.97535390     1.90100
O1676       O  0.16272788  0.71911557  0.95872521    -0.73800
O1677       O  0.08094493  0.66588312  0.94689183    -0.73700
O1678       O  0.12958904  0.69453644  0.91015078    -0.79300
O1679       O  0.07417858  0.62249356  0.95145841    -0.77500
O1680       O  0.12953973  0.66025086  0.95294053    -1.13700
O1681       O  0.10819800  0.60219855  0.96064306    -0.72800
C1682       C  0.11701550  0.60581875  0.98746222     0.97900
C1683       C  0.18637582  0.71920404  0.95821455     0.94300
Al1684     Al  0.12273534  0.68923414  0.95228801     1.55600
O1685       O  0.16704548  0.63936479  0.94935465    -0.77500
C1686       C  0.06450282  0.63934325  0.95247074     0.98400
C1687       C  0.13259649  0.68714658  0.51396667     0.93300
O1688       O  0.15415339  0.68496188  0.50691274    -0.82800
O1689       O  0.87025189  0.49761736  0.67012617    -0.82300
C1690       C  0.88793555  0.56168285  0.77485601     0.97100
O1691       O  0.90075895  0.54816874  0.76844553    -0.71400
O1692       O  0.86163036  0.49426558  0.75822014    -0.75000
Al1693     Al  0.89445990  0.52173070  0.73651469     1.49000
C1694       C  0.84200031  0.47222718  0.74550695     0.92400
O1695       O  0.81866320  0.51286262  0.71121994    -0.81200
O1696       O  0.89048355  0.57140477  0.67104705    -0.74700
Al1697     Al  0.84568685  0.50611866  0.69177468     1.90100
O1698       O  0.84368231  0.55972893  0.70606740    -0.73800
O1699       O  0.92415918  0.58551275  0.71874819    -0.73700
O1700       O  0.87576021  0.56834695  0.75476740    -0.79300
O1701       O  0.92880399  0.54749859  0.71722028    -0.77500
O1702       O  0.87430846  0.53211340  0.71385408    -1.13700
O1703       O  0.89269034  0.49313536  0.70906596    -0.72800
C1704       C  0.88544931  0.48849030  0.68166615     0.97900
C1705       C  0.81960139  0.53651880  0.70743424     0.94300
Al1706     Al  0.88283149  0.56852487  0.71294137     1.55600
O1707       O  0.83494445  0.47385828  0.71874605    -0.77500
C1708       C  0.93970393  0.57428839  0.71515768     0.98400
C1709       C  0.87234271  0.55545483  0.65167077     0.93300
O1710       O  0.85046318  0.53188756  0.65920817    -0.82800
O1711       O  0.87458653  0.49966290  0.91883016    -0.82300
C1712       C  0.88685929  0.56002172  0.52525023     0.97100
O1713       O  0.89953253  0.54638462  0.51899432    -0.71400
O1714       O  0.86315966  0.49255802  0.50608493    -0.75000
Al1715     Al  0.89623389  0.52225067  0.98634359     1.49000
C1716       C  0.84410810  0.47087307  0.99238077     0.92400
O1717       O  0.81941368  0.51147620  0.95836169    -0.81200
O1718       O  0.89189026  0.57268688  0.92102059    -0.74700
Al1719     Al  0.84836025  0.50642356  0.93990064     1.90100
O1720       O  0.84397418  0.55859492  0.95580982    -0.73800
O1721       O  0.92455834  0.58677046  0.96959140    -0.73700
O1722       O  0.87544270  0.56740767  0.00495452    -0.79300
O1723       O  0.93155189  0.55018168  0.96980514    -0.77500
O1724       O  0.87596389  0.53239725  0.96326153    -1.13700
O1725       O  0.89732708  0.49605261  0.95801949    -0.72800
C1726       C  0.89084483  0.49183828  0.93046500     0.97900
C1727       C  0.82003434  0.53522583  0.95651827     0.94300
Al1728     Al  0.88334188  0.56851681  0.96300257     1.55600
O1729       O  0.83764053  0.47345844  0.96569818    -0.77500
C1730       C  0.94139109  0.57685894  0.96848850     0.98400
C1731       C  0.87437247  0.55671138  0.90119213     0.93300
O1732       O  0.85311529  0.53255412  0.90816845    -0.82800
O1733       O  0.87071629  0.37739416  0.62215476    -0.82300
C1734       C  0.88599203  0.33096569  0.51580840     0.97100
O1735       O  0.89835624  0.35733706  0.52245167    -0.71400
O1736       O  0.85996713  0.37239057  0.53433886    -0.75000
Al1737     Al  0.89303689  0.37741721  0.55484420     1.49000
C1738       C  0.84097660  0.37521331  0.54781112     0.92400
O1739       O  0.81664371  0.30996639  0.58225004    -0.81200
O1740       O  0.88941110  0.32306122  0.61942028    -0.74700
Al1741     Al  0.84501735  0.34419318  0.60082551     1.90100
O1742       O  0.84141431  0.28791557  0.58525547    -0.73800
O1743       O  0.92257420  0.34296973  0.57124320    -0.73700
O1744       O  0.87354948  0.31176252  0.53572610    -0.79300
O1745       O  0.92770274  0.38583944  0.57293577    -0.77500
O1746       O  0.87291263  0.34659905  0.57756321    -1.13700
O1747       O  0.89234762  0.40433508  0.58276935    -0.72800
C1748       C  0.88579097  0.40180556  0.61037000     0.97900
C1749       C  0.81734530  0.28700804  0.58537441     0.94300
Al1750     Al  0.88099407  0.31846279  0.57767226     1.55600
O1751       O  0.83420544  0.36624210  0.57461722    -0.77500
C1752       C  0.93841825  0.36990300  0.57484680     0.98400
C1753       C  0.87196963  0.32127970  0.63940776     0.93300
O1754       O  0.85010524  0.32297687  0.63262869    -0.82800
O1755       O  0.87825580  0.38287276  0.87276645    -0.82300
C1756       C  0.88645282  0.33300300  0.76551717     0.97100
O1757       O  0.89977965  0.35950961  0.77149775    -0.71400
O1758       O  0.86367327  0.37689132  0.78569155    -0.75000
Al1759     Al  0.89712791  0.38074827  0.80432304     1.49000
C1760       C  0.84534773  0.38006402  0.80011263     0.92400
O1761       O  0.82096082  0.31570355  0.83502943    -0.81200
O1762       O  0.89339354  0.32573418  0.86920289    -0.74700
Al1763     Al  0.85077499  0.34964872  0.85256625     1.90100
O1764       O  0.84453611  0.29236305  0.83627772    -0.73800
O1765       O  0.92464286  0.34409730  0.81983737    -0.73700
O1766       O  0.87470494  0.31434831  0.78603719    -0.79300
O1767       O  0.93233902  0.38808491  0.82015289    -0.77500
O1768       O  0.87718737  0.35054012  0.82803359    -1.13700
O1769       O  0.89902204  0.40865513  0.83240555    -0.72800
C1770       C  0.89354250  0.40691082  0.86022457     0.97900
C1771       C  0.82103376  0.29234978  0.83732658     0.94300
Al1772     Al  0.88373895  0.32135816  0.82765296     1.55600
O1773       O  0.83995491  0.37198578  0.82724899    -0.77500
C1774       C  0.94169957  0.37094308  0.82127524     0.98400
C1775       C  0.87659992  0.32444464  0.88970853     0.93300
O1776       O  0.85576637  0.32812513  0.88390078    -0.82800
C1777       C  0.85798855  0.30109761  0.93915024    -0.21800
C1778       C  0.88144442  0.32007552  0.92117221    -0.09800
C1779       C  0.90781923  0.33898223  0.93468377     0.29100
C1780       C  0.90979038  0.34086588  0.96595860    -0.21800
C1781       C  0.88570838  0.32343740  0.98402657    -0.09800
C1782       C  0.86018221  0.30241788  0.97047055     0.29100
F1783       F  0.83653841  0.28535360  0.98731600    -0.20300
H1784       H  0.83745005  0.28651491  0.92891632     0.17400
H1785       H  0.92965061  0.35718071  0.97607559     0.17400
F1786       F  0.93063422  0.35782017  0.91774912    -0.20300
C1787       C  0.85408772  0.30186915  0.69046612    -0.21800
C1788       C  0.87735191  0.31872891  0.67126480    -0.09800
C1789       C  0.90463459  0.33693129  0.68353296     0.29100
C1790       C  0.90788707  0.34008803  0.71465736    -0.21800
C1791       C  0.88420655  0.32457333  0.73384078    -0.09800
C1792       C  0.85752221  0.30446347  0.72162169     0.29100
F1793       F  0.83419164  0.28950038  0.73959775    -0.20300
H1794       H  0.83288962  0.28783702  0.68127641     0.17400
H1795       H  0.92859612  0.35575731  0.72377422     0.17400
F1796       F  0.92741585  0.35377749  0.66549628    -0.20300
C1797       C  0.83041859  0.43848138  0.53743082    -0.21800
C1798       C  0.83297290  0.44197885  0.50606898    -0.09800
C1799       C  0.83126485  0.41946532  0.98851343     0.29100
C1800       C  0.83063666  0.39574320  0.50230886    -0.21800
C1801       C  0.83085597  0.39356140  0.53376489    -0.09800
C1802       C  0.82879285  0.41424024  0.55119929     0.29100
F1803       F  0.82878722  0.41293703  0.58166951    -0.20300
H1804       H  0.83173786  0.45550766  0.55142127     0.17400
H1805       H  0.83233766  0.38022195  0.48838891     0.17400
F1806       F  0.83389005  0.42201535  0.95815255    -0.20300
C1807       C  0.90422828  0.45426102  0.92613108    -0.21800
C1808       C  0.89997333  0.47522138  0.91222390    -0.09800
C1809       C  0.90008621  0.47690595  0.88067181     0.29100
C1810       C  0.90126530  0.45598777  0.86348929    -0.21800
C1811       C  0.90188083  0.43300429  0.87757293    -0.09800
C1812       C  0.90495822  0.43307652  0.90893680     0.29100
F1813       F  0.90660343  0.41158054  0.92305396    -0.20300
H1814       H  0.90448606  0.45276247  0.95040339     0.17400
H1815       H  0.89899634  0.45634571  0.83931983     0.17400
F1816       F  0.89701249  0.49753935  0.86649339    -0.20300
C1817       C  0.85855418  0.55787342  0.81906404    -0.21800
C1818       C  0.88581505  0.56772601  0.80656986    -0.09800
C1819       C  0.90991190  0.57845728  0.82549439     0.29100
C1820       C  0.90640791  0.57749388  0.85670979    -0.21800
C1821       C  0.87877340  0.56501258  0.86925313    -0.09800
C1822       C  0.85492707  0.55612122  0.85020275     0.29100
F1823       F  0.82792839  0.54414596  0.86168501    -0.20300
H1824       H  0.83976253  0.54929937  0.80475617     0.17400
H1825       H  0.92499047  0.58431460  0.87101929     0.17400
F1826       F  0.93657311  0.58841950  0.81379833    -0.20300
C1827       C  0.90439932  0.57192427  0.60743092    -0.21800
C1828       C  0.87726215  0.56313924  0.61968011    -0.09800
C1829       C  0.85433878  0.55777633  0.60051133     0.29100
C1830       C  0.85828220  0.55960024  0.56932063    -0.21800
C1831       C  0.88483227  0.56590771  0.55708452    -0.09800
C1832       C  0.90811095  0.57288000  0.57636184     0.29100
F1833       F  0.93401862  0.57896884  0.56512745    -0.20300
H1834       H  0.92219109  0.57586316  0.62189254     0.17400
H1835       H  0.84006372  0.55389102  0.55478610     0.17400
F1836       F  0.82790902  0.54953690  0.61192131    -0.20300
C1837       C  0.82995218  0.42151794  0.74207675    -0.21800
C1838       C  0.83171303  0.44385551  0.75984889    -0.09800
C1839       C  0.83113509  0.44102410  0.79131226     0.29100
C1840       C  0.83183661  0.41774827  0.80453607    -0.21800
C1841       C  0.83393846  0.39744170  0.78659489    -0.09800
C1842       C  0.83151667  0.39873233  0.75524465     0.29100
F1843       F  0.83318005  0.37937591  0.73720520    -0.20300
H1844       H  0.83065512  0.42330588  0.71779073     0.17400
H1845       H  0.83381529  0.41734358  0.82873839     0.17400
F1846       F  0.83242201  0.46199866  0.80918395    -0.20300
C1847       C  0.89323888  0.45080530  0.61451163    -0.21800
C1848       C  0.89297492  0.42730326  0.62838596    -0.09800
C1849       C  0.89496302  0.42663008  0.65987431     0.29100
C1850       C  0.89496141  0.44813886  0.67722381    -0.21800
C1851       C  0.89246158  0.47020060  0.66340110    -0.09800
C1852       C  0.89264921  0.47196960  0.63182730     0.29100
F1853       F  0.89062475  0.49324396  0.61769378    -0.20300
H1854       H  0.89161382  0.45165543  0.59030026     0.17400
H1855       H  0.89479849  0.44636530  0.70149366     0.17400
F1856       F  0.89536974  0.40442727  0.67390744    -0.20300
C1857       C  0.01665438  0.63707747  0.94662088    -0.21800
C1858       C  0.03355416  0.62684615  0.95977301    -0.09800
C1859       C  0.02000225  0.60214463  0.97809919     0.29100
C1860       C  0.99024457  0.58692832  0.98140085    -0.21800
C1861       C  0.97304490  0.59595949  0.96692703    -0.09800
C1862       C  0.98651146  0.62175467  0.95020340     0.29100
F1863       F  0.97052989  0.63112438  0.93588003    -0.20300
H1864       H  0.02658370  0.65603305  0.93242131     0.17400
H1865       H  0.98050766  0.56754665  0.99499508     0.17400
F1866       F  0.03553644  0.59222928  0.99244189    -0.20300
C1867       C  0.01746731  0.63626080  0.71049841    -0.21800
C1868       C  0.03128403  0.62162989  0.70025734    -0.09800
C1869       C  0.01440466  0.59219302  0.69334946     0.29100
C1870       C  0.98484191  0.57768088  0.69758551    -0.21800
C1871       C  0.97095955  0.59178879  0.70885016    -0.09800
C1872       C  0.98747010  0.62145936  0.71485235     0.29100
F1873       F  0.97489716  0.63587256  0.72591492    -0.20300
H1874       H  0.02994695  0.65889012  0.71594224     0.17400
H1875       H  0.97277322  0.55499508  0.69222881     0.17400
F1876       F  0.02636075  0.57710256  0.68245774    -0.20300
C1877       C  0.14563920  0.70603057  0.81433621    -0.21800
C1878       C  0.12322623  0.68647841  0.79581673    -0.09800
C1879       C  0.09707106  0.66592083  0.80881339     0.29100
C1880       C  0.09431340  0.66344738  0.84005260    -0.21800
C1881       C  0.11733240  0.68185567  0.85871879    -0.09800
C1882       C  0.14259632  0.70411110  0.84562150     0.29100
F1883       F  0.16522689  0.72234474  0.86293893    -0.20300
H1884       H  0.16597166  0.72195473  0.80455473     0.17400
H1885       H  0.07462609  0.64621548  0.84968568     0.17400
F1886       F  0.07522823  0.64648033  0.79140932    -0.20300
C1887       C  0.09610083  0.66899291  0.58918750    -0.21800
C1888       C  0.11951287  0.68462477  0.60846285    -0.09800
C1889       C  0.14649359  0.70430895  0.59625217     0.29100
C1890       C  0.15039733  0.70644016  0.56508578    -0.21800
C1891       C  0.12727931  0.68963328  0.54586109    -0.09800
C1892       C  0.09981711  0.67170350  0.55806869     0.29100
F1893       F  0.07724078  0.65467925  0.54003734    -0.20300
H1894       H  0.07522814  0.65353625  0.59828047     0.17400
H1895       H  0.17173990  0.72020389  0.55596441     0.17400
F1896       F  0.16960219  0.71932440  0.61436785    -0.20300
C1897       C  0.99082614  0.40995827  0.80970206    -0.21800
C1898       C  0.97306874  0.38324148  0.82335732    -0.09800
C1899       C  0.98565252  0.37036262  0.84030541     0.29100
C1900       C  0.01556197  0.38516128  0.84497962    -0.21800
C1901       C  0.03298337  0.41279121  0.83273864    -0.09800
C1902       C  0.02034829  0.42451324  0.81413214     0.29100
F1903       F  0.03650265  0.45050827  0.80063976    -0.20300
H1904       H  0.98169300  0.42001014  0.79600926     0.17400
H1905       H  0.02486259  0.37571169  0.85929646     0.17400
F1906       F  0.96898418  0.34451017  0.85385045    -0.20300
C1907       C  0.08940676  0.55587719  0.75722983    -0.21800
C1908       C  0.11572268  0.58076473  0.75067826    -0.09800
C1909       C  0.14153283  0.58317785  0.76046887     0.29100
C1910       C  0.14117542  0.56094727  0.77624305    -0.21800
C1911       C  0.11513680  0.53687853  0.78460511    -0.09800
C1912       C  0.08904994  0.53404077  0.77488000     0.29100
F1913       F  0.06367832  0.51018614  0.78178220    -0.20300
H1914       H  0.06940711  0.55380639  0.74947089     0.17400
H1915       H  0.16146098  0.56291567  0.78277482     0.17400
F1916       F  0.16725796  0.60715562  0.75473019    -0.20300
C1917       C  0.17263256  0.56794965  0.91251625    -0.21800
C1918       C  0.17010359  0.56452542  0.88120687    -0.09800
C1919       C  0.17068671  0.58663214  0.86371663     0.29100
C1920       C  0.16980268  0.60952386  0.87743800    -0.21800
C1921       C  0.16964718  0.61155482  0.90885242    -0.09800
C1922       C  0.17312987  0.59159601  0.92621263     0.29100
F1923       F  0.17372714  0.59301941  0.95660030    -0.20300
H1924       H  0.17224128  0.55128355  0.92653417     0.17400
H1925       H  0.16723991  0.62460008  0.86350891     0.17400
F1926       F  0.16863122  0.58445803  0.83345632    -0.20300
C1927       C  0.98585675  0.37042966  0.57433001    -0.21800
C1928       C  0.96979123  0.38375651  0.58113677    -0.09800
C1929       C  0.98430720  0.41166256  0.59329975     0.29100
C1930       C  0.01388886  0.42605975  0.59753097    -0.21800
C1931       C  0.03027387  0.41339754  0.58993531    -0.09800
C1932       C  0.01592625  0.38512488  0.57866869     0.29100
F1933       F  0.03095693  0.37216344  0.57083284    -0.20300
H1934       H  0.97528674  0.34900564  0.56493042     0.17400
H1935       H  0.02406811  0.44755801  0.60675768     0.17400
F1936       F  0.96998587  0.42536943  0.60123374    -0.20300
C1937       C  0.14073883  0.58459372  0.51411882    -0.21800
C1938       C  0.11475169  0.58199782  0.50502428    -0.09800
C1939       C  0.08856732  0.55749627  0.51289049     0.29100
C1940       C  0.08879184  0.53592641  0.53047531    -0.21800
C1941       C  0.11516302  0.53856631  0.53871436    -0.09800
C1942       C  0.14104886  0.56280512  0.53003250     0.29100
F1943       F  0.16681022  0.56561183  0.53732047    -0.20300
H1944       H  0.16105875  0.60352661  0.50839074     0.17400
H1945       H  0.06872610  0.51716372  0.53712361     0.17400
F1946       F  0.06320168  0.55488875  0.50434439    -0.20300
C1947       C  0.17262619  0.58685120  0.61508670    -0.21800
C1948       C  0.16955553  0.56423161  0.63361584    -0.09800
C1949       C  0.17001075  0.56768735  0.66494167     0.29100
C1950       C  0.17127012  0.59218294  0.67725115    -0.21800
C1951       C  0.17091876  0.61317848  0.65869966    -0.09800
C1952       C  0.17276616  0.61086150  0.62741159     0.29100
F1953       F  0.17252058  0.63067929  0.60870057    -0.20300
H1954       H  0.17203102  0.58468504  0.59091710     0.17400
H1955       H  0.16946311  0.59316025  0.70133297     0.17400
F1956       F  0.16696882  0.54638020  0.68365284    -0.20300
C1957       C  0.14957104  0.45391414  0.97784059    -0.21800
C1958       C  0.12577909  0.44408627  0.99713279    -0.09800
C1959       C  0.09811192  0.43241351  0.98473500     0.29100
C1960       C  0.09472977  0.43267259  0.95355819    -0.21800
C1961       C  0.11872445  0.44364332  0.93444364    -0.09800
C1962       C  0.14609103  0.45343793  0.94673197     0.29100
F1963       F  0.16973662  0.46481147  0.92880132    -0.20300
H1964       H  0.17107726  0.46317695  0.98694313     0.17400
H1965       H  0.07350323  0.42513393  0.94435599     0.17400
F1966       F  0.07468665  0.42298190  0.00274240    -0.20300
C1967       C  0.09493725  0.44000046  0.70474819    -0.21800
C1968       C  0.11551597  0.44031177  0.68509058    -0.09800
C1969       C  0.13912110  0.43926537  0.69715481     0.29100
C1970       C  0.14318987  0.44043309  0.72831736    -0.21800
C1971       C  0.12329482  0.44161085  0.74767242    -0.09800
C1972       C  0.09866969  0.44047115  0.73578150     0.29100
F1973       F  0.07964705  0.44258436  0.75407302    -0.20300
H1974       H  0.07659872  0.44082532  0.69604226     0.17400
H1975       H  0.16241947  0.44158888  0.73731098     0.17400
F1976       F  0.15941382  0.43948391  0.67892404    -0.20300
C1977       C  0.26019851  0.49623815  0.80896796    -0.21800
C1978       C  0.26091957  0.47057281  0.80865265    -0.09800
C1979       C  0.23643598  0.44506960  0.81868116     0.29100
C1980       C  0.21194349  0.44546131  0.82849031    -0.21800
C1981       C  0.21134303  0.47120363  0.82888871    -0.09800
C1982       C  0.23589380  0.49668406  0.81900723     0.29100
F1983       F  0.23632031  0.52206595  0.81812703    -0.20300
H1984       H  0.27870826  0.51626963  0.80176685     0.17400
H1985       H  0.19330046  0.42548594  0.83558213     0.17400
F1986       F  0.23615374  0.41975980  0.81950170    -0.20300
C1987       C  0.23609523  0.49691002  0.57333706    -0.21800
C1988       C  0.21099748  0.47075605  0.58040326    -0.09800
C1989       C  0.21177537  0.44514856  0.57769019     0.29100
C1990       C  0.23682176  0.44582310  0.56778251    -0.21800
C1991       C  0.26180965  0.47195317  0.56029257    -0.09800
C1992       C  0.26112726  0.49759283  0.56341809     0.29100
F1993       F  0.28463571  0.52345379  0.55704928    -0.20300
H1994       H  0.23622899  0.51702357  0.57477419     0.17400
H1995       H  0.23669302  0.42571234  0.56636147     0.17400
F1996       F  0.18834328  0.41936147  0.58448988    -0.20300
C1997       C  0.30829269  0.45448482  0.93965727    -0.21800
C1998       C  0.32354658  0.44216956  0.95187810    -0.09800
C1999       C  0.33622719  0.43113483  0.93254671     0.29100
C2000       C  0.33474160  0.43362759  0.90139442    -0.21800
C2001       C  0.32141550  0.44798448  0.88918274    -0.09800
C2002       C  0.30751012  0.45775074  0.90855444     0.29100
F2003       F  0.29413683  0.47145871  0.89750998    -0.20300
H2004       H  0.29881228  0.46350939  0.95426712     0.17400
H2005       H  0.34564282  0.42602608  0.88691579     0.17400
F2006       F  0.35117889  0.41916725  0.94386450    -0.20300
C2007       C  0.30496869  0.45123362  0.68973742    -0.21800
C2008       C  0.32002492  0.43885546  0.70219257    -0.09800
C2009       C  0.33085988  0.42567824  0.68333430     0.29100
C2010       C  0.32848936  0.42687140  0.65211221    -0.21800
C2011       C  0.31607873  0.44197437  0.63956196    -0.09800
C2012       C  0.30323028  0.45310053  0.65862539     0.29100
F2013       F  0.29066201  0.46745752  0.64720027    -0.20300
H2014       H  0.29678690  0.46173043  0.70403791     0.17400
H2015       H  0.33849800  0.41817194  0.63781600     0.17400
F2016       F  0.34522902  0.41326391  0.69507775    -0.20300
C2017       C  0.44271297  0.60981136  0.00366643    -0.21800
C2018       C  0.44452989  0.61218410  0.97215066    -0.09800
C2019       C  0.42147762  0.59104496  0.95513765     0.29100
C2020       C  0.39889081  0.56670446  0.96926549    -0.21800
C2021       C  0.39810860  0.56345718  0.00067497    -0.09800
C2022       C  0.41961451  0.58601070  0.51783019     0.29100
F2023       F  0.42011710  0.58360721  0.54817614    -0.20300
H2024       H  0.46021142  0.62550766  0.01734279     0.17400
H2025       H  0.38281656  0.54959021  0.95550586     0.17400
F2026       F  0.42225145  0.59225834  0.92466010    -0.20300
C2027       C  0.42806452  0.53579854  0.87253848    -0.21800
C2028       C  0.43013262  0.53819887  0.84106315    -0.09800
C2029       C  0.45569472  0.55975169  0.82781224     0.29100
C2030       C  0.47711278  0.58080127  0.84584146    -0.21800
C2031       C  0.47357167  0.58007620  0.87715760    -0.09800
C2032       C  0.44977965  0.55639056  0.89055786     0.29100
F2033       F  0.44595853  0.55471618  0.92081339    -0.20300
H2034       H  0.40876821  0.51895273  0.88321215     0.17400
H2035       H  0.49561972  0.59871192  0.83521883     0.17400
F2036       F  0.45883763  0.56217554  0.79749308    -0.20300
C2037       C  0.58149678  0.68023762  0.78727070    -0.21800
C2038       C  0.56682664  0.68955981  0.76858383    -0.09800
C2039       C  0.55301384  0.70315923  0.78117003     0.29100
C2040       C  0.55152240  0.70483145  0.81234101    -0.21800
C2041       C  0.56416234  0.69335746  0.83126231    -0.09800
C2042       C  0.58065859  0.68257371  0.81849621     0.29100
F2043       F  0.59351401  0.67170345  0.83607225    -0.20300
H2044       H  0.59208099  0.66953008  0.77772287     0.17400
H2045       H  0.53895004  0.71350487  0.82172383     0.17400
F2046       F  0.53832844  0.71192114  0.76350002    -0.20300
C2047       C  0.57950704  0.67409970  0.56773305    -0.21800
C2048       C  0.56795075  0.68935425  0.58147696    -0.09800
C2049       C  0.56092389  0.70660883  0.56373660     0.29100
C2050       C  0.56280967  0.70633053  0.53243968    -0.21800
C2051       C  0.57110327  0.68837891  0.51857586    -0.09800
C2052       C  0.58078229  0.67332007  0.53638649     0.29100
F2053       F  0.58940878  0.65617296  0.52339756    -0.20300
H2054       H  0.58502077  0.66072528  0.58106450     0.17400
H2055       H  0.55517775  0.71795495  0.51907049     0.17400
F2056       F  0.55024917  0.72208157  0.57661979    -0.20300
C2057       C  0.41293289  0.58779243  0.76154986    -0.21800
C2058       C  0.39299129  0.56424720  0.74437845    -0.09800
C2059       C  0.39599751  0.56580168  0.71287131     0.29100
C2060       C  0.41990399  0.58915403  0.69928243    -0.21800
C2061       C  0.44161822  0.61095500  0.71685303    -0.09800
C2062       C  0.43724984  0.61073125  0.74803212     0.29100
F2063       F  0.45759453  0.63150775  0.76571586    -0.20300
H2064       H  0.41137784  0.58706558  0.78584427     0.17400
H2065       H  0.42282429  0.58863353  0.67524758     0.17400
F2066       F  0.37718018  0.54361466  0.69541847    -0.20300
C2067       C  0.45536925  0.55144285  0.58190029    -0.21800
C2068       C  0.42989969  0.53107965  0.59621368    -0.09800
C2069       C  0.42858569  0.52994104  0.62778785     0.29100
C2070       C  0.45114742  0.55111784  0.64453562    -0.21800
C2071       C  0.47491039  0.57374147  0.62992261    -0.09800
C2072       C  0.47774017  0.57282827  0.59861401     0.29100
F2073       F  0.50103110  0.59391484  0.58398749    -0.20300
H2074       H  0.45697645  0.55243924  0.55760682     0.17400
H2075       H  0.44869574  0.55134208  0.66868611     0.17400
F2076       F  0.40471087  0.50966832  0.64235022    -0.20300
C2077       C  0.37132762  0.38898798  0.79416361    -0.21800
C2078       C  0.38620434  0.41911753  0.79657701    -0.09800
C2079       C  0.41584106  0.43366185  0.80302858     0.29100
C2080       C  0.43016116  0.41855401  0.80638411    -0.21800
C2081       C  0.41561917  0.38853568  0.80367799    -0.09800
C2082       C  0.38590445  0.37371348  0.79767464     0.29100
F2083       F  0.37107027  0.34469941  0.79476913    -0.20300
H2084       H  0.34856648  0.37732541  0.78912415     0.17400
H2085       H  0.45294185  0.43068020  0.81132744     0.17400
F2086       F  0.43132650  0.46266979  0.80626948    -0.20300
C2087       C  0.36743319  0.38272189  0.54117871    -0.21800
C2088       C  0.37864018  0.41055375  0.55294441    -0.09800
C2089       C  0.40360727  0.42211316  0.57068169     0.29100
C2090       C  0.41840466  0.40738532  0.57426397    -0.21800
C2091       C  0.40862141  0.38059411  0.56069540    -0.09800
C2092       C  0.38232272  0.36770405  0.54508932     0.29100
F2093       F  0.37209358  0.34164056  0.53200595    -0.20300
H2094       H  0.34811211  0.37331745  0.52765853     0.17400
H2095       H  0.43815849  0.41740914  0.58712925     0.17400
F2096       F  0.41427298  0.44818883  0.58396578    -0.20300
C2097       C  0.44014936  0.30455471  0.91132952    -0.21800
C2098       C  0.43556938  0.32594763  0.89922368    -0.09800
C2099       C  0.42995381  0.34311309  0.91857823     0.29100
C2100       C  0.43085132  0.34013000  0.94966556    -0.21800
C2101       C  0.43820467  0.32066167  0.96166650    -0.09800
C2102       C  0.44197450  0.30222816  0.94241639     0.29100
F2103       F  0.44912818  0.28322773  0.95364021    -0.20300
H2104       H  0.44483162  0.29138828  0.89673236     0.17400
H2105       H  0.42824461  0.35469928  0.96426970     0.17400
F2106       F  0.42543669  0.36397290  0.90741132    -0.20300
C2107       C  0.43211240  0.33639609  0.69923585    -0.21800
C2108       C  0.44303752  0.32014232  0.71216178    -0.09800
C2109       C  0.45030140  0.30373598  0.69345316     0.29100
C2110       C  0.44810774  0.30491648  0.66218881    -0.21800
C2111       C  0.43946515  0.32307718  0.64926596    -0.09800
C2112       C  0.43071858  0.33822497  0.66803645     0.29100
F2113       F  0.42238850  0.35609807  0.65613345    -0.20300
H2114       H  0.42661994  0.34934360  0.71321642     0.17400
H2115       H  0.45529431  0.29342643  0.64807497     0.17400
F2116       F  0.46067618  0.28756150  0.70533786    -0.20300
C2117       C  0.76811022  0.56186218  0.93989973    -0.21800
C2118       C  0.74217238  0.53601801  0.93501508    -0.09800
C2119       C  0.74182074  0.50987675  0.93911009     0.29100
C2120       C  0.76687352  0.50981399  0.94732827    -0.21800
C2121       C  0.79290384  0.53567448  0.95178309    -0.09800
C2122       C  0.79313491  0.56179893  0.94818799     0.29100
F2123       F  0.81757553  0.58743651  0.95235543    -0.20300
H2124       H  0.76905471  0.58232389  0.93756674     0.17400
H2125       H  0.76594313  0.48935917  0.94966428     0.17400
F2126       F  0.71727012  0.48423750  0.93542984    -0.20300
C2127       C  0.60045312  0.58717764  0.93876106    -0.21800
C2128       C  0.62591830  0.59887020  0.92192265    -0.09800
C2129       C  0.63740242  0.62681606  0.90994672     0.29100
C2130       C  0.62244735  0.64185897  0.91345660    -0.21800
C2131       C  0.59598119  0.62909903  0.92885469    -0.09800
C2132       C  0.58571807  0.60193780  0.94226521     0.29100
F2133       F  0.56099816  0.58924861  0.95857085    -0.20300
H2134       H  0.59143729  0.56601838  0.94884288     0.17400
H2135       H  0.63083250  0.66279204  0.90306200     0.17400
F2136       F  0.66200493  0.63883149  0.89352539    -0.20300
C2137       C  0.57563699  0.47806934  0.00213828    -0.21800
C2138       C  0.57457259  0.47623698  0.97065751    -0.09800
C2139       C  0.55032953  0.45358091  0.95673357     0.29100
C2140       C  0.52908548  0.43155591  0.97415888    -0.21800
C2141       C  0.53148625  0.43207283  0.00557565    -0.09800
C2142       C  0.55416411  0.45625645  0.51958512     0.29100
F2143       F  0.55721816  0.45749436  0.54992417    -0.20300
H2144       H  0.59408402  0.49546526  0.01325925     0.17400
H2145       H  0.51164940  0.41317963  0.96299892     0.17400
F2146       F  0.54854624  0.45107951  0.92635454    -0.20300
C2147       C  0.58745146  0.42307131  0.89691456    -0.21800
C2148       C  0.60818486  0.44521337  0.87865307    -0.09800
C2149       C  0.60655227  0.44129711  0.84732788     0.29100
C2150       C  0.58348225  0.41667826  0.83457400    -0.21800
C2151       C  0.56110120  0.39604542  0.85270639    -0.09800
C2152       C  0.56384271  0.39898334  0.88412727     0.29100
F2153       F  0.54254800  0.37978413  0.90239464    -0.20300
H2154       H  0.58791773  0.42573951  0.92106865     0.17400
H2155       H  0.58165728  0.41527460  0.81031368     0.17400
F2156       F  0.62606670  0.46223334  0.82894390    -0.20300
C2157       C  0.74285601  0.51122313  0.68430675    -0.21800
C2158       C  0.74365823  0.53734672  0.67931515    -0.09800
C2159       C  0.76956291  0.56326640  0.68449226     0.29100
C2160       C  0.79382228  0.56282955  0.69483288    -0.21800
C2161       C  0.79284706  0.53666634  0.70030091    -0.09800
C2162       C  0.76700771  0.51077054  0.69474780     0.29100
F2163       F  0.76499256  0.48485488  0.69889036    -0.20300
H2164       H  0.72320742  0.49091780  0.68087622     0.17400
H2165       H  0.81352197  0.58308469  0.69826817     0.17400
F2166       F  0.77148628  0.58909616  0.67997150    -0.20300
C2167       C  0.58388987  0.59778014  0.69764960    -0.21800
C2168       C  0.59467564  0.62511155  0.68465659    -0.09800
C2169       C  0.62121426  0.63783534  0.66946263     0.29100
C2170       C  0.63560864  0.62242702  0.66576359    -0.21800
C2171       C  0.62356475  0.59426913  0.67705731    -0.09800
C2172       C  0.59804518  0.58248764  0.69392016     0.29100
F2173       F  0.58633806  0.55582186  0.70630037    -0.20300
H2174       H  0.56383338  0.58774416  0.71008304     0.17400
H2175       H  0.65532659  0.63188498  0.65279254     0.17400
F2176       F  0.63226361  0.66420932  0.65663271    -0.20300
C2177       C  0.55265496  0.44977299  0.70689725    -0.21800
C2178       C  0.57717713  0.47233444  0.72033603    -0.09800
C2179       C  0.57893572  0.47464676  0.75180167     0.29100
C2180       C  0.55766810  0.45308660  0.76952264    -0.21800
C2181       C  0.53478587  0.42890373  0.75601558    -0.09800
C2182       C  0.53158583  0.42797260  0.72463307     0.29100
F2183       F  0.50898192  0.40526258  0.71110123    -0.20300
H2184       H  0.55091124  0.44776940  0.68266151     0.17400
H2185       H  0.56031625  0.45422379  0.79371074     0.17400
F2186       F  0.60207443  0.49676896  0.76536475    -0.20300
C2187       C  0.67135273  0.57823788  0.80700532    -0.21800
C2188       C  0.68296469  0.56595778  0.82610393    -0.09800
C2189       C  0.69771827  0.55317648  0.81371922     0.29100
C2190       C  0.69926227  0.55122512  0.78252600    -0.21800
C2191       C  0.68654355  0.56240933  0.76331849    -0.09800
C2192       C  0.67339900  0.57683621  0.77581769     0.29100
F2193       F  0.66033737  0.58733909  0.75803135    -0.20300
H2194       H  0.65951150  0.58775111  0.81630004     0.17400
H2195       H  0.70932005  0.53985094  0.77337236     0.17400
F2196       F  0.70824313  0.54024908  0.83170536    -0.20300
C2197       C  0.70208517  0.56658156  0.56361674    -0.21800
C2198       C  0.68025769  0.57024803  0.57605153    -0.09800
C2199       C  0.66266610  0.57562314  0.55693239     0.29100
C2200       C  0.66570097  0.57535781  0.52579119    -0.21800
C2201       C  0.68570094  0.56895402  0.51345743    -0.09800
C2202       C  0.70449771  0.56543174  0.53247082     0.29100
F2203       F  0.72396243  0.55912523  0.52091487    -0.20300
H2204       H  0.71565799  0.56217884  0.57796256     0.17400
H2205       H  0.65081699  0.57771722  0.51136858     0.17400
F2206       F  0.64143728  0.57940062  0.56832235    -0.20300
C2207       C  0.58415126  0.41765940  0.57906394    -0.21800
C2208       C  0.56179833  0.39698742  0.59718013    -0.09800
C2209       C  0.56491940  0.39918788  0.62859957     0.29100
C2210       C  0.58882968  0.42279237  0.64148038    -0.21800
C2211       C  0.60947375  0.44511753  0.62335329    -0.09800
C2212       C  0.60753166  0.44184817  0.59197394     0.29100
F2213       F  0.62701312  0.46302172  0.57379181    -0.20300
H2214       H  0.58206327  0.41672132  0.55481861     0.17400
H2215       H  0.58957849  0.42503466  0.66570616     0.17400
F2216       F  0.54368495  0.37987478  0.64685936    -0.20300
C2217       C  0.51017288  0.74717203  0.89930836    -0.21800
C2218       C  0.53539748  0.74856966  0.91008454    -0.09800
C2219       C  0.56101959  0.77552217  0.90978484     0.29100
C2220       C  0.56112626  0.80023896  0.89944590    -0.21800
C2221       C  0.53584320  0.79885939  0.88884964    -0.09800
C2222       C  0.51031969  0.77181400  0.88873032     0.29100
F2223       F  0.48534983  0.76901100  0.87837235    -0.20300
H2224       H  0.49026132  0.72673881  0.89837666     0.17400
H2225       H  0.58105851  0.82065673  0.90028063     0.17400
F2226       F  0.58606778  0.77814091  0.91959855    -0.20300
C2227       C  0.55944011  0.79328252  0.64513234    -0.21800
C2228       C  0.53419713  0.79150701  0.63384659    -0.09800
C2229       C  0.50881536  0.76450882  0.63323408     0.29100
C2230       C  0.50877579  0.74010573  0.64411987    -0.21800
C2231       C  0.53396568  0.74202439  0.65575405    -0.09800
C2232       C  0.55940290  0.76895579  0.65599729     0.29100
F2233       F  0.58428464  0.77195894  0.66693364    -0.20300
H2234       H  0.57926230  0.81377392  0.64639000     0.17400
H2235       H  0.48903577  0.71953845  0.64289346     0.17400
F2236       F  0.48398971  0.76160883  0.62229371    -0.20300
C2237       C  0.54919766  0.85226853  0.73573554    -0.21800
C2238       C  0.56152976  0.87567488  0.71566908    -0.09800
C2239       C  0.57757719  0.90372210  0.72714557     0.29100
C2240       C  0.57921931  0.90823633  0.75816195    -0.21800
C2241       C  0.56565722  0.88489895  0.77805961    -0.09800
C2242       C  0.55142876  0.85680855  0.76676021     0.29100
F2243       F  0.53726570  0.83397507  0.78560626    -0.20300
H2244       H  0.53664181  0.83051329  0.72736342     0.17400
H2245       H  0.58971968  0.93002426  0.76663779     0.17400
F2246       F  0.58933521  0.92687021  0.70846677    -0.20300
C2247       C  0.57824589  0.91423486  0.51070716    -0.21800
C2248       C  0.57017240  0.88957510  0.52832463    -0.09800
C2249       C  0.56260073  0.86352161  0.51408103     0.29100
C2250       C  0.56002614  0.86156143  0.98280395    -0.21800
C2251       C  0.56582227  0.88569704  0.96537615    -0.09800
C2252       C  0.57646763  0.91244675  0.97937438     0.29100
F2253       F  0.58229939  0.93614837  0.96310363    -0.20300
H2254       H  0.58419100  0.93453819  0.52133603     0.17400
H2255       H  0.55200616  0.84080792  0.97225732     0.17400
F2256       F  0.55474241  0.83934877  0.53043040    -0.20300
C2257       C  0.76975140  0.21626394  0.86435266    -0.21800
C2258       C  0.74443531  0.21705942  0.86906494    -0.09800
C2259       C  0.74429427  0.24254131  0.86194458     0.29100
C2260       C  0.76883317  0.26634128  0.85024525    -0.21800
C2261       C  0.79417314  0.26556614  0.84550883    -0.09800
C2262       C  0.79438748  0.24018579  0.85282925     0.29100
F2263       F  0.81847120  0.23844974  0.84933742    -0.20300
H2264       H  0.77041848  0.19691332  0.86922233     0.17400
H2265       H  0.76805613  0.28562917  0.84533755     0.17400
F2266       F  0.72029654  0.24445244  0.86551826    -0.20300
C2267       C  0.57445232  0.99260101  0.87007703    -0.21800
C2268       C  0.59022136  0.97827838  0.86898983    -0.09800
C2269       C  0.62026412  0.99470822  0.87259036     0.29100
C2270       C  0.63387062  0.02467717  0.87710331    -0.21800
C2271       C  0.61779099  0.03874811  0.87815140    -0.09800
C2272       C  0.58778717  0.02210166  0.87456478     0.29100
F2273       F  0.57089433  0.03409307  0.87560754    -0.20300
H2274       H  0.55129577  0.98091302  0.86759898     0.17400
H2275       H  0.65698316  0.03685158  0.87984983     0.17400
F2276       F  0.63644713  0.98197004  0.87180374    -0.20300
C2277       C  0.76549789  0.26061379  0.60163812    -0.21800
C2278       C  0.79041352  0.25984657  0.59357906    -0.09800
C2279       C  0.79026465  0.23386369  0.59757246     0.29100
C2280       C  0.76605247  0.20963526  0.60948297    -0.21800
C2281       C  0.74117328  0.21038460  0.61775563    -0.09800
C2282       C  0.74119985  0.23629381  0.61354074     0.29100
F2283       F  0.71770937  0.23817526  0.62054487    -0.20300
H2284       H  0.76495704  0.28033567  0.59932968     0.17400
H2285       H  0.76674570  0.18999528  0.61182591     0.17400
F2286       F  0.81355470  0.23174972  0.59016200    -0.20300
C2287       C  0.60309553  0.01222331  0.65433823    -0.21800
C2288       C  0.62893021  0.02925355  0.63872152    -0.09800
C2289       C  0.64077795  0.01590926  0.62160729     0.29100
C2290       C  0.62521244  0.98593407  0.61786505    -0.21800
C2291       C  0.59794656  0.96941064  0.63123715    -0.09800
C2292       C  0.58774057  0.98266099  0.65071026     0.29100
F2293       F  0.56223488  0.96713034  0.66530626    -0.20300
H2294       H  0.59404576  0.02202886  0.66845270     0.17400
H2295       H  0.63352946  0.97593498  0.60305321     0.17400
F2296       F  0.66603412  0.03185372  0.60677879    -0.20300
C2297       C  0.69230932  0.15195743  0.52125431    -0.21800
C2298       C  0.68292604  0.12725652  0.53920956    -0.09800
C2299       C  0.67237462  0.10044543  0.52513403     0.29100
C2300       C  0.66932790  0.09834484  0.99376124    -0.21800
C2301       C  0.67763183  0.12301097  0.97617689    -0.09800
C2302       C  0.68980242  0.14990949  0.99006367     0.29100
F2303       F  0.69706999  0.17392166  0.97363398    -0.20300
H2304       H  0.70045959  0.17285392  0.53150506     0.17400
H2305       H  0.65968981  0.07741695  0.98325292     0.17400
F2306       F  0.66310664  0.07613329  0.54169405    -0.20300
C2307       C  0.70189833  0.14879578  0.73795738    -0.21800
C2308       C  0.68635980  0.12037506  0.72754360    -0.09800
C2309       C  0.67303756  0.09780417  0.74852205     0.29100
C2310       C  0.67381541  0.10367636  0.77915058    -0.21800
C2311       C  0.68721240  0.13214600  0.78938666    -0.09800
C2312       C  0.70209598  0.15473075  0.76865329     0.29100
F2313       F  0.71597021  0.18249202  0.77790715    -0.20300
H2314       H  0.71194905  0.16650308  0.72212373     0.17400
H2315       H  0.66227700  0.08592215  0.79467946     0.17400
F2316       F  0.65777081  0.07009649  0.73919558    -0.20300
C2317       C  0.43780415  0.21161072  0.77888574    -0.21800
C2318       C  0.46248844  0.20934715  0.78180952    -0.09800
C2319       C  0.48706950  0.23207882  0.79552992     0.29100
C2320       C  0.48740253  0.25714035  0.80410428    -0.21800
C2321       C  0.46330145  0.26011447  0.79949800    -0.09800
C2322       C  0.43808851  0.23664229  0.78761104     0.29100
F2323       F  0.41415010  0.23835118  0.78264538    -0.20300
H2324       H  0.41852520  0.19441560  0.76873830     0.17400
H2325       H  0.50699241  0.27468619  0.81336395     0.17400
F2326       F  0.51120529  0.23059624  0.79995608    -0.20300
C2327       C  0.58068818  0.15364056  0.66974122    -0.21800
C2328       C  0.60005743  0.14906079  0.68664734    -0.09800
C2329       C  0.59198022  0.13800142  0.71611577     0.29100
C2330       C  0.56479601  0.13030213  0.72752423    -0.21800
C2331       C  0.54514827  0.13419439  0.71041912    -0.09800
C2332       C  0.55363314  0.14645625  0.68144812     0.29100
F2333       F  0.53548795  0.15079086  0.66402247    -0.20300
H2334       H  0.58581821  0.16135143  0.64678829     0.17400
H2335       H  0.55929668  0.12165508  0.75010874     0.17400
F2336       F  0.61003749  0.13365305  0.73369309    -0.20300
C2337       C  0.55822991  0.13281287  0.85353070    -0.21800
C2338       C  0.58253960  0.13773257  0.83716176    -0.09800
C2339       C  0.58875836  0.15300417  0.80968279     0.29100
C2340       C  0.57034927  0.16190151  0.79843613    -0.21800
C2341       C  0.54513725  0.15527994  0.81387896    -0.09800
C2342       C  0.53988744  0.14177449  0.84226260     0.29100
F2343       F  0.51590563  0.13551387  0.85820850    -0.20300
H2344       H  0.55349163  0.12223538  0.87525113     0.17400
H2345       H  0.57463132  0.17182895  0.77638844     0.17400
F2346       F  0.61234027  0.15895182  0.79320979    -0.20300
C2347       C  0.44705581  0.21407100  0.52097664    -0.21800
C2348       C  0.47353049  0.21552233  0.51575388    -0.09800
C2349       C  0.49900907  0.24176693  0.52121866     0.29100
C2350       C  0.49783510  0.26561039  0.53181958    -0.21800
C2351       C  0.47134953  0.26405364  0.53730224    -0.09800
C2352       C  0.44588013  0.23787745  0.53159698     0.29100
F2353       F  0.41970297  0.23512508  0.53614315    -0.20300
H2354       H  0.42701068  0.19416701  0.51748211     0.17400
H2355       H  0.51785543  0.28550154  0.53545477     0.17400
F2356       F  0.52516189  0.24438072  0.51699077    -0.20300
C2357       C  0.59175033  0.18000203  0.91308991    -0.21800
C2358       C  0.61324706  0.17887433  0.92992764    -0.09800
C2359       C  0.61159624  0.17877252  0.96145809     0.29100
C2360       C  0.58742125  0.17668630  0.97561189    -0.21800
C2361       C  0.56407939  0.17363265  0.95858062    -0.09800
C2362       C  0.56693362  0.17659218  0.92719766     0.29100
F2363       F  0.54498169  0.17421934  0.91012939    -0.20300
H2364       H  0.59266749  0.18031979  0.88879513     0.17400
H2365       H  0.58570510  0.17441750  0.99984838     0.17400
F2366       F  0.63207265  0.17796324  0.97848216    -0.20300
C2367       C  0.55118301  0.10306331  0.60565478    -0.21800
C2368       C  0.57291637  0.10051592  0.59123569    -0.09800
C2369       C  0.57260647  0.09816096  0.55980669     0.29100
C2370       C  0.55284543  0.10167080  0.54292582    -0.21800
C2371       C  0.53347875  0.10801234  0.55715129    -0.09800
C2372       C  0.53168261  0.10713467  0.58871594     0.29100
F2373       F  0.51217763  0.11172776  0.60313552    -0.20300
H2374       H  0.55098533  0.10464698  0.62989249     0.17400
H2375       H  0.55427906  0.10172607  0.51863716     0.17400
F2376       F  0.59296754  0.09489770  0.54535775    -0.20300
C2377       C  0.43257546  0.08587456  0.89732853    -0.21800
C2378       C  0.43487983  0.10993564  0.91228033    -0.09800
C2379       C  0.43188583  0.13032961  0.89531478     0.29100
C2380       C  0.42926121  0.12780385  0.86377761    -0.21800
C2381       C  0.42951853  0.10491190  0.84872949    -0.09800
C2382       C  0.42998878  0.08334054  0.86611983     0.29100
F2383       F  0.42936557  0.06036348  0.85293120    -0.20300
H2384       H  0.43418393  0.06944252  0.90979374     0.17400
H2385       H  0.42891082  0.14476244  0.85100780     0.17400
F2386       F  0.43373043  0.15373357  0.90878839    -0.20300
C2387       C  0.42966759  0.11616380  0.61693695    -0.21800
C2388       C  0.44816812  0.14094992  0.60036647    -0.09800
C2389       C  0.46410726  0.16719937  0.61594140     0.29100
C2390       C  0.46332360  0.16809719  0.64725175    -0.21800
C2391       C  0.44640708  0.14307858  0.66408521    -0.09800
C2392       C  0.42871929  0.11714248  0.64853029     0.29100
F2393       F  0.41202637  0.09230610  0.66382586    -0.20300
H2394       H  0.41728225  0.09573280  0.60564139     0.17400
H2395       H  0.47686753  0.18838930  0.65841109     0.17400
F2396       F  0.48155642  0.19207161  0.60097125    -0.20300
C2397       C  0.21317960  0.77040389  0.97539215    -0.21800
C2398       C  0.21384098  0.74598171  0.96559064    -0.09800
C2399       C  0.24021026  0.74637889  0.96708105     0.29100
C2400       C  0.26509448  0.77072627  0.97764527    -0.21800
C2401       C  0.26442854  0.79524733  0.98712877    -0.09800
C2402       C  0.23798284  0.79463849  0.98609554     0.29100
F2403       F  0.23593516  0.81748480  0.99539540    -0.20300
H2404       H  0.19320035  0.77061907  0.97537210     0.17400
H2405       H  0.28509612  0.77055246  0.97778411     0.17400
F2406       F  0.24207735  0.72322740  0.95855047    -0.20300
C2407       C  0.42204346  0.02125782  0.02959024    -0.21800
C2408       C  0.41230812  0.03567402  0.51115009    -0.09800
C2409       C  0.38657460  0.01958293  0.49493563     0.29100
C2410       C  0.37168383  0.98935989  0.49624345    -0.21800
C2411       C  0.38251344  0.97507330  0.51350321    -0.09800
C2412       C  0.40735919  0.99137850  0.03087976     0.29100
F2413       F  0.41788435  0.97835270  0.04872355    -0.20300
H2414       H  0.44168887  0.03322625  0.04239130     0.17400
H2415       H  0.35268406  0.97717680  0.48258707     0.17400
F2416       F  0.37709686  0.03291298  0.47616471    -0.20300
C2417       C  0.39895263  0.83252027  0.57440279    -0.21800
C2418       C  0.39969074  0.83798766  0.54344583    -0.09800
C2419       C  0.42284569  0.84044692  0.52634815     0.29100
C2420       C  0.44618939  0.84068527  0.54056300    -0.21800
C2421       C  0.44651709  0.83752776  0.57191330    -0.09800
C2422       C  0.42179853  0.83164687  0.58846330     0.29100
F2423       F  0.42103637  0.82837185  0.61876844    -0.20300
H2424       H  0.38148829  0.83075353  0.58805867     0.17400
H2425       H  0.46491729  0.84535338  0.52728261     0.17400
F2426       F  0.42455978  0.84600006  0.49640383    -0.20300
C2427       C  0.47843768  0.90989503  0.94832526    -0.21800
C2428       C  0.47475656  0.90683226  0.91709926    -0.09800
C2429       C  0.45203941  0.90837738  0.90353122     0.29100
C2430       C  0.43085789  0.90830357  0.92148740    -0.21800
C2431       C  0.43252600  0.90725379  0.95290657    -0.09800
C2432       C  0.45756537  0.91037918  0.96624354     0.29100
F2433       F  0.46028279  0.91023353  0.49656763    -0.20300
H2434       H  0.49627511  0.90948343  0.95905905     0.17400
H2435       H  0.41197793  0.90660612  0.91084654     0.17400
F2436       F  0.44839672  0.90646977  0.87326339    -0.20300
C2437       C  0.23477755  0.79558208  0.73725300    -0.21800
C2438       C  0.26048098  0.79507422  0.74065057    -0.09800
C2439       C  0.26066866  0.76993822  0.73257726     0.29100
C2440       C  0.23589209  0.74621317  0.72121510    -0.21800
C2441       C  0.21018730  0.74669026  0.71775426    -0.09800
C2442       C  0.20989876  0.77173636  0.72606129     0.29100
F2443       F  0.18558807  0.77323814  0.72370155    -0.20300
H2444       H  0.23398753  0.81469984  0.74287061     0.17400
H2445       H  0.23681022  0.72717980  0.71552584     0.17400
F2446       F  0.28495068  0.76837369  0.73484293    -0.20300
C2447       C  0.40422019  0.98914875  0.73124758    -0.21800
C2448       C  0.37847427  0.97396506  0.74753435    -0.09800
C2449       C  0.36558387  0.98900453  0.75917375     0.29100
C2450       C  0.37949300  0.01901097  0.75635189    -0.21800
C2451       C  0.40638048  0.03435703  0.74197503    -0.09800
C2452       C  0.41802556  0.01895034  0.72837525     0.29100
F2453       F  0.44358222  0.03279441  0.71361154    -0.20300
H2454       H  0.41428782  0.97798584  0.72157195     0.17400
H2455       H  0.37021928  0.03036608  0.76729079     0.17400
F2456       F  0.34081910  0.97510135  0.77527757    -0.20300
C2457       C  0.39759833  0.83920515  0.83150676    -0.21800
C2458       C  0.39535459  0.83901125  0.80005279    -0.09800
C2459       C  0.41527888  0.83549287  0.78274837     0.29100
C2460       C  0.43864163  0.83542377  0.79657937    -0.21800
C2461       C  0.44213408  0.83790173  0.82792583    -0.09800
C2462       C  0.42042161  0.83815862  0.84538997     0.29100
F2463       F  0.42296885  0.84085413  0.87571720    -0.20300
H2464       H  0.38271700  0.84211333  0.84532011     0.17400
H2465       H  0.45511850  0.83547081  0.78259749     0.17400
F2466       F  0.41416849  0.83552201  0.75226968    -0.20300
C2467       C  0.30470334  0.86326887  0.85986677    -0.21800
C2468       C  0.32345971  0.89013890  0.84700199    -0.09800
C2469       C  0.33849755  0.91420446  0.86572970     0.29100
C2470       C  0.33637160  0.91091207  0.89698854    -0.21800
C2471       C  0.31987630  0.88350367  0.90977293    -0.09800
C2472       C  0.30320098  0.85983431  0.89105217     0.29100
F2473       F  0.28688002  0.83307850  0.90288888    -0.20300
H2474       H  0.29309677  0.84449026  0.84578880     0.17400
H2475       H  0.34947076  0.92932095  0.91108140     0.17400
F2476       F  0.35645109  0.94056076  0.85378965    -0.20300
C2477       C  0.33694560  0.90932896  0.61575914    -0.21800
C2478       C  0.32279166  0.88504830  0.59727348    -0.09800
C2479       C  0.30430811  0.85809475  0.61018427     0.29100
C2480       C  0.30197307  0.85519484  0.64142903    -0.21800
C2481       C  0.31751787  0.87922254  0.66000165    -0.09800
C2482       C  0.33405143  0.90656172  0.64695706     0.29100
F2483       F  0.34970008  0.93008524  0.66432984    -0.20300
H2484       H  0.35147190  0.93022794  0.60604454     0.17400
H2485       H  0.28926557  0.83394104  0.65119095     0.17400
F2486       F  0.29089208  0.83423940  0.59280699    -0.20300
C2487       C  0.42583232  0.89546442  0.67171652    -0.21800
C2488       C  0.42803544  0.89773740  0.70314073    -0.09800
C2489       C  0.45307159  0.90147711  0.71722745     0.29100
C2490       C  0.47412833  0.90005215  0.70029839    -0.21800
C2491       C  0.47091209  0.89585148  0.66914472    -0.09800
C2492       C  0.44722206  0.89481703  0.65475276     0.29100
F2493       F  0.44340209  0.89053258  0.62466135    -0.20300
H2494       H  0.40678172  0.89265215  0.66040569     0.17400
H2495       H  0.49237699  0.90102496  0.71165628     0.17400
F2496       F  0.45609196  0.90398427  0.74753593    -0.20300
loop_ 
_geom_bond_atom_site_label_1 
_geom_bond_atom_site_label_2 
_geom_bond_distance 
_geom_bond_site_symmetry_2 
_ccdc_geom_bond_type 
O1           C16   1.258       .  A
O1           Al9   1.881       .  S
C2           O12   1.265       .  A
C2            O3   1.267       .  A
C2         C1220   1.470       .  S
O3           Al5   1.924       .  S
O4            C6   1.262       .  A
O4           Al5   1.902       .  S
Al5          O13   1.884       .  S
Al5          O15   1.924       .  S
Al5          O14   1.771       .  S
C6           O19   1.268       .  A
C6         C1210   1.487       .  S
O7           C17   1.264       .  A
O7           Al9   1.898       .  S
O8           C21   1.264       .  A
O8          Al18   1.902       .  S
Al9          O22   1.922       .  S
Al9          O19   1.945       .  S
Al9          O14   1.772       .  S
O10          C17   1.267       .  A
O10         Al18   1.929       .  S
O11          C20   1.265       .  A
O11         Al18   1.939       .  S
O12         Al18   1.902       .  S
O13          C20   1.259       .  A
O14         Al18   1.779       .  S
O15          C16   1.264       .  A
C16        C1240   1.471       .  S
C17        C1190   1.487       .  S
C20        C1200   1.478       .  S
C21          O22   1.265       .  A
C21        C1233   1.468       .  S
O23          C38   1.260       .  A
O23         Al31   1.879       .  S
C24          O34   1.264       .  A
C24          O25   1.262       .  A
C24        C1230   1.466       .  S
O25         Al27   1.904       .  S
O26          C28   1.259       .  A
O26         Al27   1.900       .  S
Al27         O35   1.868       .  S
Al27       O1285   1.915   1_554  S
Al27       O1284   1.773       .  S
C28          O41   1.266       .  A
C28        C1170   1.485       .  S
O29          C39   1.268       .  A
O29         Al31   1.905       .  S
O30          C43   1.263       .  A
O30         Al40   1.912       .  S
Al31         O44   1.913       .  S
Al31       O1289   1.947       .  S
Al31         O36   1.778       .  S
O32          C39   1.271       .  A
O32         Al40   1.938       .  S
O33        C1290   1.266       .  A
O33         Al40   1.948       .  S
O34       Al1288   1.906       .  S
O35          C42   1.255       .  A
O36         Al40   1.777       .  S
O36       Al1275   1.773       .  S
O37          C38   1.264       .  A
O37       Al1275   1.915       .  S
C38        C1183   1.464       .  S
C39        C1153   1.491       .  S
Al40       O1282   1.906       .  S
O41       Al1279   1.947   1_554  S
C42        O1281   1.266       .  A
C42        C1163   1.478       .  S
C43          O44   1.262       .  A
C43        C1223   1.469       .  S
O45          C60   1.260       .  A
O45         Al53   1.898       .  S
C46          O56   1.271       .  A
C46          O47   1.260       .  A
C46        C1130   1.492       .  S
O47         Al49   1.891       .  S
O48          C50   1.262       .  A
O48         Al49   1.908       .  S
Al49         O57   1.880       .  S
Al49       O1307   1.907       .  S
Al49       O1306   1.776       .  S
C50        O1311   1.263       .  A
C50        C1113   1.480       .  S
O51          C61   1.267       .  A
O51         Al53   1.904       .  S
O52          C65   1.271       .  A
O52         Al62   1.952       .  S
Al53         O66   1.885       .  S
Al53         O63   1.925   1_554  S
Al53         O58   1.780       .  S
O54          C61   1.268       .  A
O54         Al62   1.927       .  S
O55          C64   1.266       .  A
O55         Al62   1.942       .  S
O56       Al1310   1.949       .  S
O57        C1312   1.258       .  A
O58         Al62   1.787       .  S
O58       Al1297   1.776   1_554  S
O59          C60   1.261       .  A
O59       Al1297   1.907   1_554  S
C60        C1123   1.471       .  S
C61        C1100   1.492       .  S
Al62       O1304   1.949   1_554  S
O63        C1298   1.263       .  A
C64        O1305   1.258       .  A
C64        C1160   1.476       .  S
C65          O66   1.257       .  A
C65        C1140   1.490       .  S
O67          C82   1.275       .  A
O67         Al75   1.948       .  S
C68          O78   1.270       .  A
C68          O69   1.264       .  A
C68        C1133   1.492       .  S
O69         Al71   1.914       .  S
O70          C72   1.270       .  A
O70         Al71   1.946       .  S
Al71         O79   1.959       .  S
Al71         O81   1.900       .  S
Al71         O80   1.771       .  S
C72          O85   1.257       .  A
C72        C1070   1.484       .  S
O73          C83   1.273       .  A
O73         Al75   1.970       .  S
O74          C87   1.274       .  A
O74         Al84   1.974       .  S
Al75         O88   1.886       .  S
Al75         O85   1.875       .  S
Al75         O80   1.767       .  S
O76          C83   1.249       .  A
O76         Al84   1.853       .  S
O77          C86   1.262       .  A
O77         Al84   1.878       .  S
O78         Al84   1.944       .  S
O79          C86   1.273       .  A
O80         Al84   1.753       .  S
O81          C82   1.265       .  A
C82        C1143   1.491       .  S
C83        C1093   1.469       .  S
C86        C1203   1.480       .  S
C87          O88   1.257       .  A
C87        C1083   1.492       .  S
O89         C104   1.257       .  A
O89         Al97   1.873       .  S
C90         O100   1.267       .  A
C90          O91   1.264       .  A
C90        C1060   1.475       .  S
O91         Al93   1.915       .  S
O92          C94   1.253       .  A
O92         Al93   1.870       .  S
Al93        O101   1.856       .  S
Al93        O103   1.940       .  S
Al93        O102   1.766       .  S
C94         O107   1.273       .  A
C94        C1080   1.492       .  S
O95         C105   1.271       .  A
O95         Al97   1.920       .  S
O96         C109   1.270       .  A
O96        Al106   1.922       .  S
Al97        O110   1.918       .  S
Al97        O107   1.978       .  S
Al97        O102   1.772       .  S
O98         C105   1.267       .  A
O98        Al106   1.923       .  S
O99         C108   1.268       .  A
O99        Al106   1.956       .  S
O100       Al106   1.922       .  S
O101        C108   1.255       .  A
O102       Al106   1.772       .  S
O103        C104   1.265       .  A
C104       C1120   1.465       .  S
C105       C1033   1.496       .  S
C108       C1040   1.470       .  S
C109        O110   1.268       .  A
C109       C1050   1.479       .  S
O111        C126   1.253       .  A
O111       Al119   1.865       .  S
C112        O122   1.264       .  A
C112        O113   1.267       .  A
C112       C1053   1.468       .  S
O113       Al115   1.936       .  S
O114        C116   1.261       .  A
O114       Al115   1.893       .  S
Al115       O123   1.885       .  S
Al115       O125   1.954       .  S
Al115       O124   1.767       .  S
C116        O129   1.271       .  A
C116       C1110   1.481       .  S
O117        C127   1.257       .  A
O117       Al119   1.872       .  S
O118        C131   1.263       .  A
O118       Al128   1.890       .  S
Al119       O132   1.948       .  S
Al119       O129   1.963       .  S
Al119       O124   1.766       .  S
O120        C127   1.271       .  A
O120       Al128   1.950       .  S
O121        C130   1.272       .  A
O121       Al128   1.958       .  S
O122       Al128   1.901       .  S
O123        C130   1.264       .  A
O124       Al128   1.771       .  S
O125        C126   1.270       .  A
C126       C1090   1.478       .  S
C127       C1010   1.482       .  S
C130       C1023   1.493       .  S
C131        O132   1.270       .  A
C131       C1063   1.479       .  S
O133        C148   1.258       .  A
O133       Al141   1.891       .  S
C134        O144   1.266       .  A
C134        O135   1.264       .  A
C134       C1000   1.472       .  S
O135       Al137   1.915       .  S
O136        C138   1.263       .  A
O136       Al137   1.898       .  S
Al137       O145   1.876       .  S
Al137       O147   1.916       .  S
Al137       O146   1.769       .  S
C138        O151   1.270       .  A
C138       C1173   1.488       .  S
O139        C149   1.263       .  A
O139       Al141   1.901       .  S
O140        C153   1.264       .  A
O140       Al150   1.898       .  S
Al141       O154   1.927       .  S
Al141       O151   1.949       .  S
Al141       O146   1.774       .  S
O142        C149   1.264       .  A
O142       Al150   1.913       .  S
O143        C152   1.264       .  A
O143       Al150   1.936       .  S
O144       Al150   1.911       .  S
O145        C152   1.259       .  A
O146       Al150   1.779       .  S
O147        C148   1.261       .  A
C148       C1243   1.466       .  S
C149        C980   1.483       .  S
C152       C1043   1.470       .  S
C153        O154   1.267       .  A
C153        C990   1.475       .  S
O155        C170   1.261       .  A
O155       Al163   1.879       .  S
C156        O166   1.261       .  A
C156        O157   1.260       .  A
C156        C993   1.464       .  S
O157       Al159   1.904       .  S
O158        C160   1.259       .  A
O158       Al159   1.899       .  S
Al159       O167   1.852       .  S
Al159       O169   1.918       .  S
Al159       O168   1.775       .  S
C160        O173   1.267       .  A
C160       C1213   1.488       .  S
O161        C171   1.268       .  A
O161       Al163   1.899       .  S
O162        C175   1.261       .  A
O162       Al172   1.907       .  S
Al163       O176   1.921       .  S
Al163       O173   1.951       .  S
Al163       O168   1.773       .  S
O164        C171   1.276       .  A
O164       Al172   1.963       .  S
O165        C174   1.272       .  A
O165       Al172   1.973       .  S
O166       Al172   1.904       .  S
O167        C174   1.254       .  A
O168       Al172   1.777       .  S
O169        C170   1.264       .  A
C170       C1180   1.463       .  S
C171        C973   1.498       .  S
C174       C1020   1.495       .  S
C175        O176   1.263       .  A
C175       C1003   1.471       .  S
O177        C192   1.258       .  A
O177       Al185   1.873       .  S
C178        O188   1.265       .  A
C178        O179   1.264       .  A
C178        C950   1.470       .  S
O179       Al181   1.912       .  S
O180        C182   1.261       .  A
O180       Al181   1.900       .  S
Al181       O189   1.871       .  S
Al181       O191   1.919       .  S
Al181       O190   1.770       .  S
C182        O195   1.266       .  A
C182        C963   1.479       .  S
O183        C193   1.264       .  A
O183       Al185   1.888       .  S
O184        C197   1.264       .  A
O184       Al194   1.905       .  S
Al185       O198   1.923       .  S
Al185       O195   1.936       .  S
Al185       O190   1.771       .  S
O186        C193   1.267       .  A
O186       Al194   1.927       .  S
O187        C196   1.264       .  A
O187       Al194   1.936       .  S
O188       Al194   1.902       .  S
O189        C196   1.257       .  A
O190       Al194   1.776       .  S
O191        C192   1.264       .  A
C192        C930   1.461       .  S
C193        C910   1.480       .  S
C196        C923   1.473       .  S
C197        O198   1.265       .  A
C197        C943   1.475       .  S
O199        C214   1.259       .  A
O199       Al207   1.882       .  S
C200        O210   1.264       .  A
C200        O201   1.264       .  A
C200        C940   1.467       .  S
O201       Al203   1.916       .  S
O202        C204   1.261       .  A
O202       Al203   1.900       .  S
Al203       O211   1.871       .  S
Al203       O213   1.923       .  S
Al203       O212   1.769       .  S
C204        O217   1.268       .  A
C204        C900   1.484       .  S
O205        C215   1.264       .  A
O205       Al207   1.893       .  S
O206        C219   1.263       .  A
O206       Al216   1.903       .  S
Al207       O220   1.920       .  S
Al207       O217   1.944       .  S
Al207       O212   1.772       .  S
O208        C215   1.271       .  A
O208       Al216   1.945       .  S
O209        C218   1.268       .  A
O209       Al216   1.960       .  S
O210       Al216   1.906       .  S
O211        C218   1.258       .  A
O212       Al216   1.777       .  S
O213        C214   1.264       .  A
C214        C890   1.468       .  S
C215        C870   1.490       .  S
C218        C880   1.484       .  S
C219        O220   1.264       .  A
C219       C2201   1.464       .  S
O221        C236   1.259       .  A
O221       Al229   1.883       .  S
C222        O232   1.266       .  A
C222        O223   1.262       .  A
C222        C863   1.471       .  S
O223       Al225   1.904       .  S
O224        C226   1.259       .  A
O224       Al225   1.892       .  S
Al225       O233   1.871       .  S
Al225       O235   1.921       .  S
Al225       O234   1.770       .  S
C226        O239   1.267       .  A
C226        C960   1.480       .  S
O227        C237   1.264       .  A
O227       Al229   1.894       .  S
O228        C241   1.262       .  A
O228      Al1486   1.901       .  S
Al229       O239   1.943       .  S
Al229      O1490   1.920   1_554  S
Al229       O234   1.775       .  S
O230        C237   1.271       .  A
O230       Al238   1.946       .  S
O231        C240   1.268       .  A
O231       Al238   1.953       .  S
O232       Al238   1.917       .  S
O233        C240   1.258       .  A
O234       Al238   1.777       .  S
O235        C236   1.263       .  A
C236       C2141   1.468       .  S
C237       C1103   1.492       .  S
Al238      O1476   1.901       .  S
C240        C843   1.479       .  S
C241        O242   1.264       .  A
C241        C853   1.464       .  S
O242      Al1477   1.920       .  S
O243        C258   1.260       .  A
O243       Al251   1.880       .  S
C244        O254   1.263       .  A
C244        O245   1.263       .  A
C244        C850   1.467       .  S
O245       Al247   1.908       .  S
O246        C248   1.258       .  A
O246       Al247   1.894       .  S
Al247       O255   1.860       .  S
Al247       O257   1.917       .  S
Al247       O256   1.768       .  S
C248        O261   1.267       .  A
C248        C903   1.485       .  S
O249        C259   1.268       .  A
O249       Al251   1.902       .  S
O250        C263   1.264       .  A
O250       Al260   1.905       .  S
Al251       O264   1.928       .  S
Al251       O261   1.952       .  S
Al251       O256   1.774       .  S
O252        C259   1.267       .  A
O252       Al260   1.923       .  S
O253        C262   1.265       .  A
O253       Al260   1.938       .  S
O254       Al260   1.900       .  S
O255        C262   1.255       .  A
O256       Al260   1.775       .  S
O257        C258   1.264       .  A
C258        C933   1.461       .  S
C259       C1073   1.483       .  S
C262        C833   1.478       .  S
C263        O264   1.265       .  A
C263        C860   1.474       .  S
O265        C280   1.260       .  A
O265       Al273   1.879       .  S
C266        O276   1.261       .  A
C266        O267   1.261       .  A
C266        C790   1.463       .  S
O267       Al269   1.906       .  S
O268        C270   1.260       .  A
O268       Al269   1.901       .  S
Al269       O277   1.858       .  S
Al269       O279   1.927       .  S
Al269       O278   1.773       .  S
C270        O283   1.265       .  A
C270        C813   1.485       .  S
O271        C281   1.266       .  A
O271       Al273   1.889       .  S
O272        C285   1.262       .  A
O272       Al282   1.913       .  S
Al273       O286   1.911       .  S
Al273       O283   1.943       .  S
Al273       O278   1.775       .  S
O274        C281   1.271       .  A
O274       Al282   1.934       .  S
O275        C284   1.267       .  A
O275       Al282   1.942       .  S
O276       Al282   1.902       .  S
O277        C284   1.256       .  A
O278       Al282   1.780       .  S
O279        C280   1.266       .  A
C280        C823   1.465       .  S
C281        C983   1.481       .  S
C284        C920   1.476       .  S
C285        O286   1.261       .  A
C285        C800   1.470       .  S
O287        C302   1.258       .  A
O287       Al295   1.883       .  S
C288        O298   1.265       .  A
C288        O289   1.263       .  A
C288       C2051   1.469       .  S
O289       Al291   1.909       .  S
O290        C292   1.260       .  A
O290       Al291   1.898       .  S
Al291       O299   1.867       .  S
Al291       O301   1.924       .  S
Al291       O300   1.773       .  S
C292        O305   1.270       .  A
C292        C770   1.494       .  S
O293        C303   1.269       .  A
O293       Al295   1.907       .  S
O294        C307   1.263       .  A
O294       Al304   1.904       .  S
Al295       O308   1.917       .  S
Al295       O305   1.963       .  S
Al295       O300   1.776       .  S
O296        C303   1.271       .  A
O296       Al304   1.947       .  S
O297        C306   1.269       .  A
O297       Al304   1.961       .  S
O298       Al304   1.911       .  S
O299        C306   1.256       .  A
O300       Al304   1.781       .  S
O301        C302   1.264       .  A
C302        C783   1.467       .  S
C303        C970   1.497       .  S
C306        C883   1.484       .  S
C307        O308   1.264       .  A
C307        C793   1.474       .  S
O309        C324   1.258       .  A
O309       Al317   1.884       .  S
C310        O311   1.263       .  A
C310       O1568   1.265       .  A
C310        C750   1.469       .  S
O311      Al1561   1.914       .  S
O312        C314   1.262       .  A
O312       Al313   1.904       .  S
Al313       O321   1.869       .  S
Al313       O323   1.913       .  S
Al313      O1559   1.914   1_554  S
Al313       O322   1.774       .  S
C314        O327   1.270       .  A
C314       C2021   1.492       .  S
O315        C325   1.267       .  A
O315       Al317   1.908       .  S
O316        C329   1.264       .  A
O316       Al326   1.908       .  S
Al317       O330   1.916       .  S
Al317       O327   1.953       .  S
Al317       O322   1.773       .  S
O318        C325   1.269       .  A
O318       Al326   1.935       .  S
O319        C328   1.267       .  A
O319       Al326   1.954       .  S
O320       C1558   1.265   1_554  A
O320       Al326   1.909       .  S
O321        C328   1.256       .  A
O322       Al326   1.780       .  S
O323        C324   1.262       .  A
C324        C820   1.467       .  S
C325        C743   1.495       .  S
C328        C840   1.481       .  S
C329        O330   1.265       .  A
C329        C763   1.472       .  S
O331        C346   1.258       .  A
O331       Al339   1.873       .  S
C332        O342   1.263       .  A
C332        O333   1.264       .  A
C332        C760   1.464       .  S
O333       Al335   1.918       .  S
O334        C336   1.258       .  A
O334       Al335   1.892       .  S
Al335       O343   1.853       .  S
Al335       O345   1.934       .  S
Al335       O344   1.770       .  S
C336        O349   1.268       .  A
C336        C810   1.486       .  S
O337        C347   1.266       .  A
O337       Al339   1.894       .  S
O338        C351   1.264       .  A
O338       Al348   1.904       .  S
Al339       O352   1.927       .  S
Al339       O349   1.951       .  S
Al339       O344   1.771       .  S
O340        C347   1.269       .  A
O340       Al348   1.936       .  S
O341        C350   1.267       .  A
O341       Al348   1.947       .  S
O342       Al348   1.899       .  S
O343        C350   1.253       .  A
O344       Al348   1.777       .  S
O345        C346   1.267       .  A
C346        C780   1.470       .  S
C347        C730   1.486       .  S
C350        C830   1.478       .  S
C351        O352   1.266       .  A
C351        C753   1.476       .  S
O353        C368   1.256       .  A
O353       Al361   1.866       .  S
C354        O364   1.266       .  A
C354        O355   1.266       .  A
C354        C720   1.477       .  S
O355       Al357   1.914       .  S
O356        C358   1.260       .  A
O356       Al357   1.900       .  S
Al357       O365   1.867       .  S
Al357       O367   1.928       .  S
Al357       O366   1.770       .  S
C358        O371   1.266       .  A
C358        C700   1.487       .  S
O359        C369   1.264       .  A
O359       Al361   1.892       .  S
O360        C373   1.264       .  A
O360       Al370   1.907       .  S
Al361       O374   1.922       .  S
Al361       O371   1.948       .  S
Al361       O366   1.773       .  S
O362        C369   1.274       .  A
O362       Al370   1.961       .  S
O363        C372   1.269       .  A
O363       Al370   1.961       .  S
O364       Al370   1.906       .  S
O365        C372   1.256       .  A
O366       Al370   1.778       .  S
O367        C368   1.265       .  A
C368        C693   1.452       .  S
C369        C740   1.493       .  S
C372        C683   1.489       .  S
C373        O374   1.264       .  A
C373       C1958   1.474   1_554  S
O375        C390   1.254       .  A
O375       Al383   1.863       .  S
C376        O386   1.264       .  A
C376        O377   1.269       .  A
C376        C713   1.470       .  S
O377       Al379   1.934       .  S
O378        C380   1.260       .  A
O378       Al379   1.898       .  S
Al379       O387   1.863       .  S
Al379       O389   1.940       .  S
Al379       O388   1.767       .  S
C380        O393   1.268       .  A
C380        C670   1.486       .  S
O381        C391   1.262       .  A
O381       Al383   1.884       .  S
O382        C395   1.262       .  A
O382       Al392   1.896       .  S
Al383       O396   1.934       .  S
Al383       O393   1.954       .  S
Al383       O388   1.769       .  S
O384        C391   1.271       .  A
O384       Al392   1.949       .  S
O385        C394   1.267       .  A
O385       Al392   1.953       .  S
O386       Al392   1.893       .  S
O387        C394   1.255       .  A
O388       Al392   1.776       .  S
O389        C390   1.267       .  A
C390        C663   1.455       .  S
C391        C733   1.485       .  S
C394        C653   1.478       .  S
C395        O396   1.266       .  A
C395        C723   1.464       .  S
O397        C412   1.257       .  A
O397       Al405   1.868       .  S
C398        O408   1.264       .  A
C398        O399   1.266       .  A
C398        C640   1.469       .  S
O399       Al401   1.918       .  S
O400        C402   1.260       .  A
O400       Al401   1.901       .  S
Al401       O409   1.864       .  S
Al401       O411   1.932       .  S
Al401       O410   1.769       .  S
C402        O415   1.267       .  A
C402        C703   1.486       .  S
O403        C413   1.263       .  A
O403       Al405   1.886       .  S
O404        C417   1.263       .  A
O404       Al414   1.903       .  S
Al405       O418   1.931       .  S
Al405       O415   1.949       .  S
Al405       O410   1.768       .  S
O406        C413   1.271       .  A
O406       Al414   1.951       .  S
O407        C416   1.269       .  A
O407       Al414   1.956       .  S
O408       Al414   1.903       .  S
O409        C416   1.256       .  A
O410       Al414   1.777       .  S
O411        C412   1.265       .  A
C412        C660   1.454       .  S
C413       C1193   1.488       .  S
C416        C620   1.484       .  S
C417        O418   1.266       .  A
C417        C630   1.468       .  S
O419       C1682   1.255       .  A
O419      Al1675   1.864       .  S
C420        O430   1.266       .  A
C420        O421   1.267       .  A
C420        C633   1.476       .  S
O421       Al423   1.922       .  S
O422        C424   1.262       .  A
O422       Al423   1.901       .  S
Al423       O431   1.871       .  S
Al423       O433   1.929       .  S
Al423       O432   1.770       .  S
C424        O437   1.268       .  A
C424        C673   1.487       .  S
O425        C435   1.262       .  A
O425       Al427   1.891       .  S
O426        C439   1.263   1_556  A
O426      Al1684   1.897       .  S
Al427       O437   1.948       .  S
Al427      O1667   1.864       .  S
Al427      O1688   1.929       .  S
Al427       O432   1.772       .  S
O428        C435   1.273       .  A
O428       Al436   1.954       .  S
O429        C438   1.269       .  A
O429       Al436   1.963       .  S
O430       Al436   1.904       .  S
O431        C438   1.256       .  A
O432       Al436   1.777       .  S
O433        C434   1.264       .  A
C434       O1667   1.255       .  A
C434       C1938   1.452       .  S
C435       C1150   1.493       .  S
Al436      O1674   1.897       .  S
C438        C610   1.485       .  S
C439        O440   1.266       .  A
C439        C643   1.468       .  S
O440      Al1675   1.929   1_554  S
O441        C456   1.258       .  A
O441       Al449   1.873       .  S
C442        O452   1.263       .  A
C442        O443   1.265       .  A
C442        C570   1.467       .  S
O443       Al445   1.922       .  S
O444        C446   1.259       .  A
O444       Al445   1.897       .  S
Al445       O453   1.867       .  S
Al445       O455   1.935       .  S
Al445       O454   1.767       .  S
C446        O459   1.266       .  A
C446        C590   1.480       .  S
O447        C457   1.261       .  A
O447       Al449   1.882       .  S
O448        C461   1.263       .  A
O448       Al458   1.898       .  S
Al449       O462   1.929       .  S
Al449       O459   1.941       .  S
Al449       O454   1.771       .  S
O450        C457   1.270       .  A
O450       Al458   1.940       .  S
O451        C460   1.268       .  A
O451       Al458   1.952       .  S
O452       Al458   1.899       .  S
O453        C460   1.258       .  A
O454       Al458   1.776       .  S
O455        C456   1.267       .  A
C456        C603   1.469       .  S
C457        C913   1.481       .  S
C460        C623   1.483       .  S
C461        O462   1.265       .  A
C461        C580   1.467       .  S
O463        C478   1.260       .  A
O463       Al471   1.880       .  S
C464        O465   1.263       .  A
C464       O1722   1.264       .  A
C464        C583   1.469       .  S
O465      Al1715   1.902   1_554  S
O466       C1716   1.259   1_554  A
O466      Al1715   1.902   1_554  S
Al467       O475   1.878       .  S
Al467       O477   1.920       .  S
Al467      O1713   1.902       .  S
Al467      O1714   1.902       .  S
Al467       O476   1.775       .  S
C468        O481   1.265       .  A
C468       O1714   1.259       .  A
C468       C1798   1.485       .  S
O469        C479   1.266       .  A
O469       Al471   1.901       .  S
O470        C483   1.263       .  A
O470       Al480   1.909       .  S
Al471       O484   1.914       .  S
Al471       O481   1.939       .  S
Al471       O476   1.778       .  S
O472        C479   1.269       .  A
O472       Al480   1.936       .  S
O473        C482   1.266       .  A
O473       Al480   1.945       .  S
O474       C1712   1.264       .  A
O474       Al480   1.909       .  S
O475        C482   1.258       .  A
O476       Al480   1.780       .  S
O477        C478   1.265       .  A
C478        C560   1.468       .  S
C479        C873   1.490       .  S
C482        C613   1.484       .  S
C483        O484   1.263       .  A
C483        C573   1.471       .  S
O485        C500   1.258       .  A
O485       Al493   1.879       .  S
C486        O496   1.264       .  A
C486        O487   1.264       .  A
C486       C1781   1.471   1_554  S
O487       Al489   1.912       .  S
O488        C490   1.260       .  A
O488       Al489   1.897       .  S
Al489       O497   1.869       .  S
Al489       O499   1.929       .  S
Al489       O498   1.768       .  S
C490        O503   1.268       .  A
C490        C553   1.486       .  S
O491        C501   1.265       .  A
O491       Al493   1.894       .  S
O492        C505   1.262       .  A
O492       Al502   1.900       .  S
Al493       O506   1.922       .  S
Al493       O503   1.950       .  S
Al493       O498   1.775       .  S
O494        C501   1.274       .  A
O494       Al502   1.955       .  S
O495        C504   1.270       .  A
O495       Al502   1.964       .  S
O496       Al502   1.906       .  S
O497        C504   1.257       .  A
O498       Al502   1.777       .  S
O499        C500   1.266       .  A
C500        C600   1.467       .  S
C501       C1030   1.494       .  S
C504        C680   1.491       .  S
C505        O506   1.264       .  A
C505        C540   1.467       .  S
O507        C522   1.259       .  A
O507       Al515   1.882       .  S
C508        O518   1.263       .  A
C508        O509   1.263       .  A
C508        C543   1.469       .  S
O509       Al511   1.909       .  S
O510        C512   1.260       .  A
O510       Al511   1.899       .  S
Al511       O519   1.871       .  S
Al511       O521   1.922       .  S
Al511       O520   1.772       .  S
C512        O525   1.265       .  A
C512        C593   1.482       .  S
O513        C523   1.265       .  A
O513       Al515   1.892       .  S
O514        C527   1.262       .  A
O514       Al524   1.904       .  S
Al515       O528   1.915       .  S
Al515       O525   1.939       .  S
Al515       O520   1.775       .  S
O516        C523   1.268       .  A
O516       Al524   1.927       .  S
O517        C526   1.265       .  A
O517       Al524   1.937       .  S
O518       Al524   1.905       .  S
O519        C526   1.258       .  A
O520       Al524   1.778       .  S
O521        C522   1.265       .  A
C522        C563   1.465       .  S
C523       C1013   1.482       .  S
C526        C650   1.475       .  S
C527        O528   1.262       .  A
C527        C530   1.464       .  S
C529        C530   1.404       .  A
C529        C534   1.398       .  A
C529        H536   1.084       .  S
C530        C531   1.401       .  A
C531        C532   1.396       .  A
C531        F538   1.358       .  S
C532        C533   1.406       .  A
C532        H537   1.084       .  S
C533       C1734   1.471       .  S
C533        C534   1.404       .  A
C534        F535   1.357       .  S
C539        C540   1.404       .  A
C539        C544   1.397       .  A
C539        H546   1.084       .  S
C540        C541   1.404       .  A
C541        C542   1.396       .  A
C541        F548   1.358       .  S
C542        C543   1.405       .  A
C542        H547   1.084       .  S
C543        C544   1.403       .  A
C544        F545   1.357       .  S
C549        C550   1.405       .  A
C549        C554   1.404       .  A
C549        H556   1.083       .  S
C550       C1716   1.485   1_554  S
C550       C1799   1.409   1_554  A
C551       C1798   1.409       .  A
C551       C1800   1.402       .  A
C551        F558   1.358       .  S
C552        C553   1.405       .  A
C552       C1799   1.402   1_554  A
C552        H557   1.083   1_554  S
C553        C554   1.410       .  A
C554        F555   1.358       .  S
C559        C560   1.403       .  A
C559        C564   1.394       .  A
C559        H566   1.083       .  S
C560        C561   1.407       .  A
C561        C562   1.393       .  A
C561        F568   1.358       .  S
C562        C563   1.402       .  A
C562        H567   1.084       .  S
C563        C564   1.405       .  A
C564        F565   1.358       .  S
C569        C570   1.400       .  A
C569        C574   1.396       .  A
C569        H576   1.084       .  S
C570        C571   1.406       .  A
C571        C572   1.399       .  A
C571        F578   1.358       .  S
C572        C573   1.403       .  A
C572        H577   1.083       .  S
C573        C574   1.408       .  A
C574        F575   1.358       .  S
C579        C580   1.400       .  A
C579        C584   1.394       .  A
C579        H586   1.084       .  S
C580        C581   1.407       .  A
C581        C582   1.400       .  A
C581        F588   1.358       .  S
C582        C583   1.403       .  A
C582        H587   1.083       .  S
C583        C584   1.406       .  A
C584        F585   1.358       .  S
C589        C590   1.406       .  A
C589        C594   1.400       .  A
C589        H596   1.084       .  S
C590        C591   1.407       .  A
C591        C592   1.402       .  A
C591        F598   1.358       .  S
C592        C593   1.407       .  A
C592        H597   1.084       .  S
C593        C594   1.406       .  A
C594        F595   1.357       .  S
C599        C600   1.401       .  A
C599        C604   1.393       .  A
C599        H606   1.084       .  S
C600        C601   1.407       .  A
C601        C602   1.396       .  A
C601        F608   1.358       .  S
C602        C603   1.403       .  A
C602        H607   1.084       .  S
C603        C604   1.408       .  A
C604        F605   1.358       .  S
C609        C610   1.408       .  A
C609        C614   1.411   1_455  A
C609        H616   1.083       .  S
C610        C611   1.408       .  A
C611        C612   1.392   1_455  A
C611        F618   1.358       .  S
C612        C613   1.402       .  A
C612        H617   1.084       .  S
C613        C614   1.410       .  A
C614        F615   1.357       .  S
C619        C620   1.408       .  A
C619        C624   1.409   1_455  A
C619        H626   1.083       .  S
C620        C621   1.409       .  A
C621        C622   1.388   1_455  A
C621        F628   1.358       .  S
C622        C623   1.403       .  A
C622        H627   1.084       .  S
C623        C624   1.410       .  A
C624        F625   1.357       .  S
C629        C630   1.404       .  A
C629        C634   1.399       .  A
C629        H636   1.084       .  S
C630        C631   1.402       .  A
C631        C632   1.397       .  A
C631        F638   1.358       .  S
C632        C633   1.406       .  A
C632        H637   1.083       .  S
C633        C634   1.406       .  A
C634        F635   1.357       .  S
C639        C640   1.403       .  A
C639        C644   1.396       .  A
C639        H646   1.084       .  S
C640        C641   1.405       .  A
C641        C642   1.398       .  A
C641        F648   1.358       .  S
C642        C643   1.404       .  A
C642        H647   1.084       .  S
C643        C644   1.404       .  A
C644        F645   1.358       .  S
C649        C650   1.400       .  A
C649        C654   1.388   1_655  A
C649        H656   1.084       .  S
C650        C651   1.408       .  A
C651        C652   1.407   1_655  A
C651        F658   1.357       .  S
C652        C653   1.406       .  A
C652        H657   1.083       .  S
C653        C654   1.407       .  A
C654        F655   1.358       .  S
C659        C660   1.404       .  A
C659        C664   1.405       .  A
C659        H666   1.083       .  S
C660        C661   1.400       .  A
C661        C662   1.379       .  A
C661        F668   1.359       .  S
C662        C663   1.396       .  A
C662        H667   1.084       .  S
C663        C664   1.404       .  A
C664        F665   1.356       .  S
C669        C670   1.404       .  A
C669        C674   1.403       .  A
C669        H676   1.083       .  S
C670        C671   1.408       .  A
C671        C672   1.401       .  A
C671        F678   1.352       .  S
C672        C673   1.403       .  A
C672        H677   1.083       .  S
C673        C674   1.410       .  A
C674        F675   1.354       .  S
C679        C680   1.410       .  A
C679        C684   1.413   1_655  A
C679        H686   1.083       .  S
C680        C681   1.409       .  A
C681        C682   1.390   1_655  A
C681        F688   1.358       .  S
C682        C683   1.404       .  A
C682        H687   1.084       .  S
C683        C684   1.410       .  A
C684        F685   1.357       .  S
C689        C690   1.396       .  A
C689        C694   1.377       .  A
C689        H696   1.084       .  S
C690       C1682   1.452   1_554  S
C690        C691   1.404       .  A
C691        C692   1.405       .  A
C691        F698   1.357       .  S
C692        C693   1.404       .  A
C692        H697   1.083       .  S
C693        C694   1.399       .  A
C694        F695   1.358       .  S
C699        C700   1.408       .  A
C699        C704   1.404       .  A
C699        H706   1.081       .  S
C700        C701   1.406       .  A
C701        C702   1.401       .  A
C701        F708   1.357       .  S
C702        C703   1.407       .  A
C702        H707   1.080       .  S
C703        C704   1.406       .  A
C704        F705   1.358       .  S
C709        C710   1.404       .  A
C709        C714   1.396       .  A
C709        H716   1.084       .  S
C710       C1621   1.474       .  S
C710        C711   1.407       .  A
C711        C712   1.400       .  A
C711        F718   1.358       .  S
C712        C713   1.403       .  A
C712        H717   1.083       .  S
C713        C714   1.403       .  A
C714        F715   1.358       .  S
C719        C720   1.406       .  A
C719        C724   1.394       .  A
C719        H726   1.083       .  S
C720        C721   1.408       .  A
C721        C722   1.401       .  A
C721        F728   1.357       .  S
C722        C723   1.402       .  A
C722        H727   1.083       .  S
C723        C724   1.401       .  A
C724        F725   1.359       .  S
C729        C730   1.404       .  A
C729        C734   1.396       .  A
C729        H736   1.083       .  S
C730        C731   1.412       .  A
C731        C732   1.401       .  A
C731        F738   1.357       .  S
C732        C733   1.405       .  A
C732        H737   1.083       .  S
C733        C734   1.411       .  A
C734        F735   1.358       .  S
C739        C740   1.409       .  A
C739        C744   1.402       .  A
C739        H746   1.083       .  S
C740        C741   1.408       .  A
C741        C742   1.403       .  A
C741        F748   1.357       .  S
C742        C743   1.410       .  A
C742        H747   1.083       .  S
C743        C744   1.409       .  A
C744        F745   1.357       .  S
C749        C750   1.401       .  A
C749        C754   1.398       .  A
C749        H756   1.084       .  S
C750        C751   1.406       .  A
C751        C752   1.399       .  A
C751        F758   1.358       .  S
C752        C753   1.403       .  A
C752        H757   1.083       .  S
C753        C754   1.409       .  A
C754        F755   1.358       .  S
C759        C760   1.399       .  A
C759        C764   1.394       .  A
C759        H766   1.084       .  S
C760        C761   1.405       .  A
C761        C762   1.400       .  A
C761        F768   1.357       .  S
C762        C763   1.404       .  A
C762        H767   1.083       .  S
C763        C764   1.408       .  A
C764        F765   1.358       .  S
C769        C770   1.407       .  A
C769       C2022   1.405       .  A
C769        H776   1.083       .  S
C770        C771   1.411       .  A
C771        C772   1.407       .  A
C771        F778   1.357       .  S
C772        C773   1.406       .  A
C772        H777   1.083       .  S
C773       C1562   1.492       .  S
C773       C2022   1.410       .  A
C774       C2017   1.405       .  A
C774       C2021   1.410       .  A
C774        F775   1.358       .  S
C779        C780   1.405       .  A
C779        C784   1.393       .  A
C779        H786   1.084       .  S
C780        C781   1.405       .  A
C781        C782   1.396       .  A
C781        F788   1.357       .  S
C782        C783   1.404       .  A
C782        H787   1.084       .  S
C783        C784   1.404       .  A
C784        F785   1.358       .  S
C789        C790   1.403       .  A
C789        C794   1.399       .  A
C789        H796   1.084       .  S
C790        C791   1.400       .  A
C791        C792   1.395       .  A
C791        F798   1.358       .  S
C792        C793   1.407       .  A
C792        H797   1.084       .  S
C793        C794   1.406       .  A
C794        F795   1.358       .  S
C799        C800   1.400       .  A
C799        C804   1.398       .  A
C799        H806   1.083       .  S
C800        C801   1.408       .  A
C801        C802   1.397       .  A
C801        F808   1.358       .  S
C802        C803   1.400       .  A
C802        H807   1.084       .  S
C803       C1536   1.469   1_554  S
C803        C804   1.408       .  A
C804        F805   1.358       .  S
C809        C810   1.407       .  A
C809        C814   1.402       .  A
C809        H816   1.083       .  S
C810        C811   1.409       .  A
C811        C812   1.402       .  A
C811        F818   1.358       .  S
C812        C813   1.407       .  A
C812        H817   1.084       .  S
C813        C814   1.406       .  A
C814        F815   1.357       .  S
C819        C820   1.403       .  A
C819        C824   1.392       .  A
C819        H826   1.084       .  S
C820        C821   1.406       .  A
C821        C822   1.393       .  A
C821        F828   1.358       .  S
C822        C823   1.402       .  A
C822        H827   1.084       .  S
C823        C824   1.405       .  A
C824        F825   1.358       .  S
C829        C830   1.407       .  A
C829        C834   1.405       .  A
C829        H836   1.083       .  S
C830        C831   1.409       .  A
C831        C832   1.384       .  A
C831        F838   1.359       .  S
C832        C833   1.403       .  A
C832        H837   1.083       .  S
C833        C834   1.409       .  A
C834        F835   1.357       .  S
C839        C840   1.407       .  A
C839        C844   1.409       .  A
C839        H846   1.083       .  S
C840        C841   1.407       .  A
C841        C842   1.390       .  A
C841        F848   1.359       .  S
C842        C843   1.402       .  A
C842        H847   1.084       .  S
C843        C844   1.408       .  A
C844        F845   1.357       .  S
C849        C850   1.402       .  A
C849        C854   1.397       .  A
C849        H856   1.084       .  S
C850        C851   1.407       .  A
C851        C852   1.396       .  A
C851        F858   1.358       .  S
C852        C853   1.400       .  A
C852        H857   1.084       .  S
C853        C854   1.405       .  A
C854        F855   1.358       .  S
C859        C860   1.401       .  A
C859        C864   1.396       .  A
C859        H866   1.084       .  S
C860        C861   1.409       .  A
C861        C862   1.400       .  A
C861        F868   1.357       .  S
C862        C863   1.401       .  A
C862        H867   1.083       .  S
C863        C864   1.408       .  A
C864        F865   1.358       .  S
C869        C870   1.406       .  A
C869        C874   1.400       .  A
C869        H876   1.083       .  S
C870        C871   1.411       .  A
C871        C872   1.401       .  A
C871        F878   1.357       .  S
C872        C873   1.406       .  A
C872        H877   1.083       .  S
C873        C874   1.411       .  A
C874        F875   1.357       .  S
C879        C880   1.402       .  A
C879        C884   1.389       .  A
C879        H886   1.084       .  S
C880        C881   1.410       .  A
C881        C882   1.412       .  A
C881        F888   1.357       .  S
C882        C883   1.408       .  A
C882        H887   1.083       .  S
C883        C884   1.408       .  A
C884        F885   1.358       .  S
C889        C890   1.404       .  A
C889       C2142   1.394       .  A
C889        H896   1.084       .  S
C890        C891   1.406       .  A
C891        C892   1.393       .  A
C891        F898   1.358       .  S
C892        C893   1.403       .  A
C892        H897   1.084       .  S
C893       C1484   1.468       .  S
C893       C2142   1.406       .  A
C894       C2137   1.394       .  A
C894       C2141   1.406       .  A
C894        F895   1.358       .  S
C899        C900   1.407       .  A
C899        C904   1.402       .  A
C899        H906   1.084       .  S
C900        C901   1.407       .  A
C901        C902   1.403       .  A
C901        F908   1.358       .  S
C902        C903   1.408       .  A
C902        H907   1.084       .  S
C903        C904   1.407       .  A
C904        F905   1.358       .  S
C909        C910   1.404       .  A
C909        C914   1.394       .  A
C909        H916   1.083       .  S
C910        C911   1.409       .  A
C911        C912   1.398       .  A
C911        F918   1.358       .  S
C912        C913   1.405       .  A
C912        H917   1.083       .  S
C913        C914   1.410       .  A
C914        F915   1.358       .  S
C919        C920   1.404       .  A
C919        C924   1.388       .  A
C919        H926   1.084       .  S
C920        C921   1.407       .  A
C921        C922   1.404       .  A
C921        F928   1.357       .  S
C922        C923   1.406       .  A
C922        H927   1.083       .  S
C923        C924   1.404       .  A
C924        F925   1.359       .  S
C929        C930   1.402       .  A
C929        C934   1.392       .  A
C929        H936   1.084       .  S
C930        C931   1.405       .  A
C931        C932   1.391       .  A
C931        F938   1.358       .  S
C932        C933   1.401       .  A
C932        H937   1.084       .  S
C933        C934   1.405       .  A
C934        F935   1.358       .  S
C939        C940   1.403       .  A
C939        C944   1.398       .  A
C939        H946   1.084       .  S
C940        C941   1.403       .  A
C941        C942   1.398       .  A
C941        F948   1.358       .  S
C942        C943   1.407       .  A
C942        H947   1.083       .  S
C943        C944   1.406       .  A
C944        F945   1.358       .  S
C949        C950   1.402       .  A
C949        C954   1.397       .  A
C949        H956   1.083       .  S
C950        C951   1.408       .  A
C951        C952   1.396       .  A
C951        F958   1.358       .  S
C952        C953   1.400       .  A
C952        H957   1.084       .  S
C953       C1467   1.464   1_554  S
C953        C954   1.404       .  A
C954        F955   1.358       .  S
C959        C960   1.407       .  A
C959        C964   1.401       .  A
C959        H966   1.084       .  S
C960        C961   1.407       .  A
C961        C962   1.399       .  A
C961        F968   1.358       .  S
C962        C963   1.406       .  A
C962        H967   1.084       .  S
C963        C964   1.405       .  A
C964        F965   1.357       .  S
C969        C970   1.408       .  A
C969        C974   1.404       .  A
C969        H976   1.083       .  S
C970        C971   1.411       .  A
C971        C972   1.406       .  A
C971        F978   1.357       .  S
C972        C973   1.408       .  A
C972        H977   1.083       .  S
C973        C974   1.411       .  A
C974        F975   1.357       .  S
C979        C980   1.408       .  A
C979        C984   1.395       .  A
C979        H986   1.083       .  S
C980        C981   1.407       .  A
C981        C982   1.399       .  A
C981        F988   1.357       .  S
C982        C983   1.408       .  A
C982        H987   1.083       .  S
C983        C984   1.406       .  A
C984        F985   1.358       .  S
C989        C990   1.406       .  A
C989        C994   1.398       .  A
C989        H996   1.083       .  S
C990        C991   1.407       .  A
C991        C992   1.397       .  A
C991        F998   1.358       .  S
C992        C993   1.401       .  A
C992        H997   1.084       .  S
C993        C994   1.402       .  A
C994        F995   1.358       .  S
C999       C1000   1.407       .  A
C999       C2252   1.398   1_554  A
C999       H1006   1.084       .  S
C1000      C1001   1.403       .  A
C1001      C2250   1.398   1_554  A
C1001      F1008   1.357       .  S
C1002      C1003   1.405       .  A
C1002      C2249   1.398       .  A
C1002      H1007   1.084       .  S
C1003      C1004   1.403       .  A
C1004      C2247   1.398       .  A
C1004      F1005   1.358       .  S
C1009      C1010   1.403       .  A
C1009      C1014   1.398       .  A
C1009      H1016   1.083       .  S
C1010      C1011   1.413       .  A
C1011      C1012   1.395       .  A
C1011      F1018   1.358       .  S
C1012      C1013   1.404       .  A
C1012      H1017   1.083       .  S
C1013      C1014   1.411       .  A
C1014      F1015   1.357       .  S
C1019      C1020   1.409       .  A
C1019      C1024   1.391   1_565  A
C1019      H1026   1.083       .  S
C1020      C1021   1.409       .  A
C1021      C1022   1.412   1_565  A
C1021      F1028   1.356       .  S
C1022      C1023   1.412       .  A
C1022      H1027   1.083       .  S
C1023      C1024   1.408       .  A
C1024      F1025   1.358       .  S
C1029      C1030   1.411       .  A
C1029      C1034   1.405       .  A
C1029      H1036   1.083       .  S
C1030      C1031   1.408       .  A
C1031      C1032   1.401       .  A
C1031      F1038   1.358       .  S
C1032      C1033   1.411       .  A
C1032      H1037   1.083       .  S
C1033      C1034   1.408       .  A
C1034      F1035   1.357       .  S
C1039      C1040   1.403       .  A
C1039      C1044   1.386   1_545  A
C1039      H1046   1.084       .  S
C1040      C1041   1.405       .  A
C1041      C1042   1.406   1_545  A
C1041      F1048   1.357       .  S
C1042      C1043   1.407       .  A
C1042      H1047   1.083       .  S
C1043      C1044   1.402       .  A
C1044      F1045   1.359       .  S
C1049      C1050   1.407       .  A
C1049      C2302   1.394   1_554  A
C1049      H1056   1.084       .  S
C1050      C1051   1.408       .  A
C1051      C2300   1.404   1_554  A
C1051      F1058   1.357       .  S
C1052      C1053   1.404       .  A
C1052      C2299   1.404       .  A
C1052      H1057   1.083       .  S
C1053      C1054   1.400       .  A
C1054      C2297   1.394       .  A
C1054      F1055   1.358       .  S
C1059      C1060   1.405       .  A
C1059      C1064   1.403       .  A
C1059      H1066   1.083       .  S
C1060      C1061   1.406       .  A
C1061      C1062   1.396       .  A
C1061      F1068   1.358       .  S
C1062      C1063   1.404       .  A
C1062      H1067   1.084       .  S
C1063      C1064   1.408       .  A
C1064      F1065   1.357       .  S
C1069      C1070   1.402       .  A
C1069      C1074   1.398       .  A
C1069      H1076   1.083       .  S
C1070      C1071   1.413       .  A
C1071      C1072   1.397       .  A
C1071      F1078   1.358       .  S
C1072      C1073   1.402       .  A
C1072      H1077   1.083       .  S
C1073      C1074   1.413       .  A
C1074      F1075   1.358       .  S
C1079      C1080   1.406       .  A
C1079      C1084   1.406       .  A
C1079      H1086   1.083       .  S
C1080      C1081   1.413       .  A
C1081      C1082   1.400       .  A
C1081      F1088   1.358       .  S
C1082      C1083   1.403       .  A
C1082      H1087   1.083       .  S
C1083      C1084   1.413       .  A
C1084      F1085   1.357       .  S
C1089      C1090   1.402       .  A
C1089      C1094   1.394       .  A
C1089      H1096   1.083       .  S
C1090      C1091   1.414       .  A
C1091      C1092   1.395       .  A
C1091      F1098   1.357       .  S
C1092      C1093   1.398       .  A
C1092      H1097   1.083       .  S
C1093      C1094   1.411       .  A
C1094      F1095   1.359       .  S
C1099      C1100   1.409       .  A
C1099      C1104   1.401       .  A
C1099      H1106   1.083       .  S
C1100      C1101   1.409       .  A
C1101      C1102   1.402       .  A
C1101      F1108   1.357       .  S
C1102      C1103   1.409       .  A
C1102      H1107   1.083       .  S
C1103      C1104   1.409       .  A
C1104      F1105   1.357       .  S
C1109      C1110   1.407       .  A
C1109      C1114   1.403       .  A
C1109      H1116   1.082       .  S
C1110      C1111   1.406       .  A
C1111      C1112   1.400       .  A
C1111      F1118   1.358       .  S
C1112      C1113   1.406       .  A
C1112      H1117   1.084       .  S
C1113      C1114   1.405       .  A
C1114      F1115   1.357       .  S
C1119      C1120   1.402       .  A
C1119      C1124   1.398       .  A
C1119      H1126   1.083       .  S
C1120      C1121   1.404       .  A
C1121      C1122   1.392       .  A
C1121      F1128   1.358       .  S
C1122      C1123   1.404       .  A
C1122      H1127   1.084       .  S
C1123      C1124   1.407       .  A
C1124      F1125   1.358       .  S
C1129      C1130   1.409       .  A
C1129      C1134   1.396       .  A
C1129      H1136   1.084       .  S
C1130      C1131   1.407       .  A
C1131      C1132   1.411       .  A
C1131      F1138   1.357       .  S
C1132      C1133   1.413       .  A
C1132      H1137   1.083       .  S
C1133      C1134   1.406       .  A
C1134      F1135   1.358       .  S
C1139      C1140   1.404       .  A
C1139      C1144   1.409       .  A
C1139      H1146   1.083       .  S
C1140      C1141   1.414       .  A
C1141      C1142   1.396       .  A
C1141      F1148   1.359       .  S
C1142      C1143   1.401       .  A
C1142      H1147   1.083       .  S
C1143      C1144   1.416       .  A
C1144      F1145   1.357       .  S
C1149      C1150   1.406       .  A
C1149      C1154   1.400       .  A
C1149      H1156   1.083       .  S
C1150      C1151   1.412       .  A
C1151      C1152   1.403       .  A
C1151      F1158   1.358       .  S
C1152      C1153   1.407       .  A
C1152      H1157   1.083       .  S
C1153      C1154   1.410       .  A
C1154      F1155   1.357       .  S
C1159      C1164   1.391   1_545  A
C1159      C2408   1.400       .  A
C1159      H1166   1.084       .  S
C1160      C1161   1.409   1_554  A
C1160      C2407   1.400       .  A
C1161      C1162   1.407   1_545  A
C1161      F1168   1.357       .  S
C1162      C1163   1.405   1_556  A
C1162      H1167   1.083       .  S
C1163      C2412   1.407       .  A
C1164      C2411   1.407       .  A
C1164      F1165   1.358       .  S
C1169      C1170   1.404       .  A
C1169      C1174   1.403       .  A
C1169      H1176   1.083       .  S
C1170      C1171   1.409       .  A
C1171      C1172   1.403       .  A
C1171      F1178   1.358   1_554  S
C1172      C1173   1.406       .  A
C1172      H1177   1.083       .  S
C1173      C1174   1.411       .  A
C1174      F1175   1.357       .  S
C1179      C1180   1.402       .  A
C1179      C1184   1.390       .  A
C1179      H1186   1.084       .  S
C1180      C1181   1.405       .  A
C1181      C1182   1.392       .  A
C1181      F1188   1.358       .  S
C1182      C1183   1.404       .  A
C1182      H1187   1.084       .  S
C1183      C1184   1.405       .  A
C1184      F2433   1.358       .  S
F1185      C2432   1.358       .  S
C1189      C1190   1.408       .  A
C1189      C1194   1.401       .  A
C1189      H1196   1.083       .  S
C1190      C1191   1.408       .  A
C1191      C1192   1.398       .  A
C1191      F1198   1.357       .  S
C1192      C1193   1.407       .  A
C1192      H1197   1.083       .  S
C1193      C1194   1.409       .  A
C1194      F1195   1.357       .  S
C1199      C1200   1.403       .  A
C1199      C1204   1.394   1_565  A
C1199      H1206   1.084       .  S
C1200      C1201   1.408       .  A
C1201      C1202   1.403   1_565  A
C1201      F1208   1.357       .  S
C1202      C1203   1.407       .  A
C1202      H1207   1.083       .  S
C1203      C1204   1.408       .  A
C1204      F1205   1.358       .  S
C1209      C1210   1.405       .  A
C1209      C1214   1.403       .  A
C1209      H1216   1.083       .  S
C1210      C1211   1.411       .  A
C1211      C1212   1.404       .  A
C1211      F1218   1.358       .  S
C1212      C1213   1.405       .  A
C1212      H1217   1.083       .  S
C1213      C1214   1.411       .  A
C1214      F1215   1.357       .  S
C1219      C1220   1.401       .  A
C1219      C1224   1.396       .  A
C1219      H1226   1.083       .  S
C1220      C1221   1.407       .  A
C1221      C1222   1.399       .  A
C1221      F1228   1.358       .  S
C1222      C1223   1.401       .  A
C1222      H1227   1.083       .  S
C1223      C1224   1.407       .  A
C1224      F1225   1.358       .  S
C1229      C1230   1.404       .  A
C1229      C1234   1.396       .  A
C1229      H1236   1.084       .  S
C1230      C1231   1.402       .  A
C1231      C1232   1.397       .  A
C1231      F1238   1.358       .  S
C1232      C1233   1.405       .  A
C1232      H1237   1.084       .  S
C1233      C1234   1.404       .  A
C1234      F1235   1.358       .  S
C1239      C1240   1.404       .  A
C1239      C1244   1.393       .  A
C1239      H1246   1.084       .  S
C1240      C1241   1.408       .  A
C1241      C1242   1.397       .  A
C1241      F1248   1.358       .  S
C1242      C1243   1.402       .  A
C1242      H1247   1.084       .  S
C1243      C1244   1.405       .  A
C1244      F1245   1.358       .  S
O1249      C1264   1.258       .  A
O1249     Al1257   1.881       .  S
C1250      O1260   1.265       .  A
C1250      O1251   1.267       .  A
C1250      C2468   1.470       .  S
O1251     Al1253   1.924       .  S
O1252      C1254   1.262       .  A
O1252     Al1253   1.902       .  S
Al1253     O1261   1.884       .  S
Al1253     O1263   1.924       .  S
Al1253     O1262   1.771       .  S
C1254      O1267   1.268       .  A
C1254      C2458   1.487       .  S
O1255      C1265   1.264       .  A
O1255     Al1257   1.898       .  S
O1256      C1269   1.264       .  A
O1256     Al1266   1.902       .  S
Al1257     O1270   1.922       .  S
Al1257     O1267   1.945       .  S
Al1257     O1262   1.772       .  S
O1258      C1265   1.267       .  A
O1258     Al1266   1.929       .  S
O1259      C1268   1.265       .  A
O1259     Al1266   1.939       .  S
O1260     Al1266   1.902       .  S
O1261      C1268   1.259       .  A
O1262     Al1266   1.779       .  S
O1263      C1264   1.264       .  A
C1264      C2488   1.471       .  S
C1265      C2438   1.487       .  S
C1268      C2448   1.478       .  S
C1269      O1270   1.265       .  A
C1269      C2481   1.468       .  S
O1271      C1286   1.260       .  A
O1271     Al1279   1.879       .  S
C1272      O1282   1.264       .  A
C1272      O1273   1.262       .  A
C1272      C2478   1.466       .  S
O1273     Al1275   1.904       .  S
O1274      C1276   1.259       .  A
O1274     Al1275   1.900       .  S
Al1275     O1283   1.868       .  S
C1276      O1289   1.266       .  A
C1276      C2418   1.485       .  S
O1277      C1287   1.268       .  A
O1277     Al1279   1.904       .  S
O1278      C1291   1.263       .  A
O1278     Al1288   1.912   1_556  S
Al1279     O1292   1.913       .  S
Al1279     O1284   1.778   1_556  S
O1280      C1287   1.271       .  A
O1280     Al1288   1.938   1_556  S
O1281     Al1288   1.948       .  S
O1283      C1290   1.255       .  A
O1284     Al1288   1.777       .  S
O1285      C1286   1.264       .  A
C1286      C2431   1.464       .  S
C1287      C2401   1.491       .  S
C1290      C2411   1.478       .  S
C1291      O1292   1.262       .  A
C1291      C2471   1.469       .  S
O1293      C1308   1.260       .  A
O1293     Al1301   1.898       .  S
C1294      O1304   1.271       .  A
C1294      O1295   1.260       .  A
C1294      C2378   1.492       .  S
O1295     Al1297   1.891       .  S
O1296      C1298   1.262       .  A
O1296     Al1297   1.908       .  S
Al1297     O1305   1.880   1_556  S
C1298      C2361   1.480       .  S
O1299      C1309   1.267       .  A
O1299     Al1301   1.904       .  S
O1300      C1313   1.271       .  A
O1300     Al1310   1.952       .  S
Al1301     O1314   1.884       .  S
Al1301     O1311   1.925       .  S
Al1301     O1306   1.780       .  S
O1302      C1309   1.268       .  A
O1302     Al1310   1.927       .  S
O1303      C1312   1.266       .  A
O1303     Al1310   1.942       .  S
O1306     Al1310   1.787       .  S
O1307      C1308   1.261       .  A
C1308      C2371   1.471       .  S
C1309      C2348   1.492       .  S
C1312      C2408   1.476       .  S
C1313      O1314   1.257       .  A
C1313      C2388   1.490       .  S
O1315      C1330   1.275       .  A
O1315     Al1323   1.948       .  S
C1316      O1326   1.270       .  A
C1316      O1317   1.264       .  A
C1316      C2381   1.492       .  S
O1317     Al1319   1.914       .  S
O1318      C1320   1.270       .  A
O1318     Al1319   1.946       .  S
Al1319     O1327   1.959       .  S
Al1319     O1329   1.900       .  S
Al1319     O1328   1.771       .  S
C1320      O1333   1.257       .  A
C1320      C2318   1.484       .  S
O1321      C1331   1.273       .  A
O1321     Al1323   1.970       .  S
O1322      C1335   1.274       .  A
O1322     Al1332   1.974       .  S
Al1323     O1336   1.886       .  S
Al1323     O1333   1.875       .  S
Al1323     O1328   1.767       .  S
O1324      C1331   1.249       .  A
O1324     Al1332   1.853       .  S
O1325      C1334   1.262       .  A
O1325     Al1332   1.878       .  S
O1326     Al1332   1.944       .  S
O1327      C1334   1.273       .  A
O1328     Al1332   1.753       .  S
O1329      C1330   1.265       .  A
C1330      C2391   1.491       .  S
C1331      C2341   1.469       .  S
C1334      C2451   1.480       .  S
C1335      O1336   1.257       .  A
C1335      C2331   1.492       .  S
O1337      C1352   1.257       .  A
O1337     Al1345   1.873       .  S
C1338      O1348   1.267       .  A
C1338      O1339   1.264       .  A
C1338      C2308   1.475       .  S
O1339     Al1341   1.915       .  S
O1340      C1342   1.253       .  A
O1340     Al1341   1.870       .  S
Al1341     O1349   1.856       .  S
Al1341     O1351   1.940       .  S
Al1341     O1350   1.766       .  S
C1342      O1355   1.273       .  A
C1342      C2328   1.492       .  S
O1343      C1353   1.271       .  A
O1343     Al1345   1.920       .  S
O1344      C1357   1.270       .  A
O1344     Al1354   1.922       .  S
Al1345     O1358   1.918       .  S
Al1345     O1355   1.978       .  S
Al1345     O1350   1.772       .  S
O1346      C1353   1.267       .  A
O1346     Al1354   1.923       .  S
O1347      C1356   1.268       .  A
O1347     Al1354   1.956       .  S
O1348     Al1354   1.922       .  S
O1349      C1356   1.255       .  A
O1350     Al1354   1.772       .  S
O1351      C1352   1.265       .  A
C1352      C2368   1.465       .  S
C1353      C2281   1.496       .  S
C1356      C2288   1.470       .  S
C1357      O1358   1.268       .  A
C1357      C2298   1.479       .  S
O1359      C1374   1.253       .  A
O1359     Al1367   1.865       .  S
C1360      O1370   1.264       .  A
C1360      O1361   1.267       .  A
C1360      C2301   1.468       .  S
O1361     Al1363   1.936       .  S
O1362      C1364   1.261       .  A
O1362     Al1363   1.893       .  S
Al1363     O1371   1.885       .  S
Al1363     O1373   1.954       .  S
Al1363     O1372   1.767       .  S
C1364      O1377   1.271       .  A
C1364      C2358   1.481       .  S
O1365      C1375   1.257       .  A
O1365     Al1367   1.872       .  S
O1366      C1379   1.263       .  A
O1366     Al1376   1.890       .  S
Al1367     O1380   1.948       .  S
Al1367     O1377   1.963       .  S
Al1367     O1372   1.766       .  S
O1368      C1375   1.271       .  A
O1368     Al1376   1.950       .  S
O1369      C1378   1.272       .  A
O1369     Al1376   1.958       .  S
O1370     Al1376   1.901       .  S
O1371      C1378   1.264       .  A
O1372     Al1376   1.771       .  S
O1373      C1374   1.270       .  A
C1374      C2338   1.478       .  S
C1375      C2258   1.482       .  S
C1378      C2271   1.493       .  S
C1379      O1380   1.270       .  A
C1379      C2311   1.479       .  S
O1381      C1396   1.258       .  A
O1381     Al1389   1.891       .  S
C1382      O1392   1.266       .  A
C1382      O1383   1.264       .  A
C1382      C2248   1.472       .  S
O1383     Al1385   1.915       .  S
O1384      C1386   1.263       .  A
O1384     Al1385   1.898       .  S
Al1385     O1393   1.876       .  S
Al1385     O1395   1.916       .  S
Al1385     O1394   1.769       .  S
C1386      O1399   1.270       .  A
C1386      C2421   1.488       .  S
O1387      C1397   1.263       .  A
O1387     Al1389   1.901       .  S
O1388      C1401   1.264       .  A
O1388     Al1398   1.898       .  S
Al1389     O1402   1.927       .  S
Al1389     O1399   1.949       .  S
Al1389     O1394   1.774       .  S
O1390      C1397   1.264       .  A
O1390     Al1398   1.913       .  S
O1391      C1400   1.264       .  A
O1391     Al1398   1.936       .  S
O1392     Al1398   1.911       .  S
O1393      C1400   1.259       .  A
O1394     Al1398   1.779       .  S
O1395      C1396   1.261       .  A
C1396      C2491   1.466       .  S
C1397      C2228   1.483       .  S
C1400      C2291   1.470       .  S
C1401      O1402   1.267       .  A
C1401      C2238   1.475       .  S
O1403      C1418   1.261       .  A
O1403     Al1411   1.879       .  S
C1404      O1414   1.261       .  A
C1404      O1405   1.260       .  A
C1404      C2241   1.464       .  S
O1405     Al1407   1.904       .  S
O1406      C1408   1.259       .  A
O1406     Al1407   1.899       .  S
Al1407     O1415   1.852       .  S
Al1407     O1417   1.919       .  S
Al1407     O1416   1.775       .  S
C1408      O1421   1.267       .  A
C1408      C2461   1.488       .  S
O1409      C1419   1.268       .  A
O1409     Al1411   1.899       .  S
O1410      C1423   1.261       .  A
O1410     Al1420   1.907       .  S
Al1411     O1424   1.921       .  S
Al1411     O1421   1.951       .  S
Al1411     O1416   1.773       .  S
O1412      C1419   1.276       .  A
O1412     Al1420   1.963       .  S
O1413      C1422   1.272       .  A
O1413     Al1420   1.973       .  S
O1414     Al1420   1.904       .  S
O1415      C1422   1.254       .  A
O1416     Al1420   1.777       .  S
O1417      C1418   1.264       .  A
C1418      C2428   1.463       .  S
C1419      C2221   1.498       .  S
C1422      C2268   1.495       .  S
C1423      O1424   1.263       .  A
C1423      C2251   1.471       .  S
O1425      C1440   1.258       .  A
O1425     Al1433   1.873       .  S
C1426      O1436   1.265       .  A
C1426      O1427   1.264       .  A
C1426      C2198   1.470       .  S
O1427     Al1429   1.912       .  S
O1428      C1430   1.261       .  A
O1428     Al1429   1.901       .  S
Al1429     O1437   1.871       .  S
Al1429     O1439   1.919       .  S
Al1429     O1438   1.770       .  S
C1430      O1443   1.266       .  A
C1430      C2211   1.479       .  S
O1431      C1441   1.264       .  A
O1431     Al1433   1.888       .  S
O1432      C1445   1.264       .  A
O1432     Al1442   1.905       .  S
Al1433     O1446   1.923       .  S
Al1433     O1443   1.936       .  S
Al1433     O1438   1.771       .  S
O1434      C1441   1.267       .  A
O1434     Al1442   1.927       .  S
O1435      C1444   1.264       .  A
O1435     Al1442   1.936       .  S
O1436     Al1442   1.902       .  S
O1437      C1444   1.257       .  A
O1438     Al1442   1.776       .  S
O1439      C1440   1.264       .  A
C1440      C2178   1.461       .  S
C1441      C2158   1.480       .  S
C1444      C2171   1.473       .  S
C1445      O1446   1.265       .  A
C1445      C2191   1.475       .  S
O1447      C1462   1.259       .  A
O1447     Al1455   1.882       .  S
C1448      O1458   1.264       .  A
C1448      O1449   1.264       .  A
C1448      C2188   1.467       .  S
O1449     Al1451   1.916       .  S
O1450      C1452   1.261       .  A
O1450     Al1451   1.900       .  S
Al1451     O1459   1.871       .  S
Al1451     O1461   1.923       .  S
Al1451     O1460   1.769       .  S
C1452      O1465   1.268       .  A
C1452      C2148   1.484       .  S
O1453      C1463   1.264       .  A
O1453     Al1455   1.893       .  S
O1454      C1467   1.263       .  A
O1454     Al1464   1.903       .  S
Al1455     O1468   1.920       .  S
Al1455     O1465   1.944       .  S
Al1455     O1460   1.772       .  S
O1456      C1463   1.271       .  A
O1456     Al1464   1.945       .  S
O1457      C1466   1.268       .  A
O1457     Al1464   1.960       .  S
O1458     Al1464   1.906       .  S
O1459      C1466   1.258       .  A
O1460     Al1464   1.777       .  S
O1461      C1462   1.264       .  A
C1462      C2138   1.468       .  S
C1463      C2118   1.490       .  S
C1466      C2128   1.484       .  S
C1467      O1468   1.264       .  A
O1469      C1484   1.259       .  A
O1469     Al1477   1.883       .  S
C1470      O1480   1.266       .  A
C1470      O1471   1.262       .  A
C1470      C2111   1.471       .  S
O1471     Al1473   1.904       .  S
O1472      C1474   1.259       .  A
O1472     Al1473   1.892       .  S
Al1473     O1481   1.871       .  S
Al1473     O1483   1.921       .  S
Al1473     O1482   1.770       .  S
C1474      O1487   1.267       .  A
C1474      C2208   1.480       .  S
O1475      C1485   1.264       .  A
O1475     Al1477   1.894       .  S
O1476      C1489   1.262   1_554  A
Al1477     O1487   1.943       .  S
Al1477     O1482   1.775       .  S
O1478      C1485   1.271       .  A
O1478     Al1486   1.946       .  S
O1479      C1488   1.268       .  A
O1479     Al1486   1.953       .  S
O1480     Al1486   1.917       .  S
O1481      C1488   1.258       .  A
O1482     Al1486   1.777       .  S
O1483      C1484   1.263       .  A
C1485      C2351   1.492       .  S
C1488      C2091   1.479       .  S
C1489      O1490   1.264       .  A
C1489      C2101   1.464       .  S
O1491      C1506   1.260       .  A
O1491     Al1499   1.880       .  S
C1492      O1502   1.263       .  A
C1492      O1493   1.263       .  A
C1492      C2098   1.467       .  S
O1493     Al1495   1.908       .  S
O1494      C1496   1.258       .  A
O1494     Al1495   1.894       .  S
Al1495     O1503   1.860       .  S
Al1495     O1505   1.917       .  S
Al1495     O1504   1.768       .  S
C1496      O1509   1.267       .  A
C1496      C2151   1.485       .  S
O1497      C1507   1.268       .  A
O1497     Al1499   1.902       .  S
O1498      C1511   1.264       .  A
O1498     Al1508   1.905       .  S
Al1499     O1512   1.928       .  S
Al1499     O1509   1.952       .  S
Al1499     O1504   1.774       .  S
O1500      C1507   1.267       .  A
O1500     Al1508   1.923       .  S
O1501      C1510   1.265       .  A
O1501     Al1508   1.938       .  S
O1502     Al1508   1.900       .  S
O1503      C1510   1.255       .  A
O1504     Al1508   1.775       .  S
O1505      C1506   1.264       .  A
C1506      C2181   1.461       .  S
C1507      C2321   1.483       .  S
C1510      C2081   1.478       .  S
C1511      O1512   1.265       .  A
C1511      C2108   1.474       .  S
O1513      C1528   1.260       .  A
O1513     Al1521   1.879       .  S
C1514      O1524   1.261       .  A
C1514      O1515   1.261       .  A
C1514      C2038   1.463       .  S
O1515     Al1517   1.906       .  S
O1516      C1518   1.260       .  A
O1516     Al1517   1.901       .  S
Al1517     O1525   1.858       .  S
Al1517     O1527   1.927       .  S
Al1517     O1526   1.773       .  S
C1518      O1531   1.265       .  A
C1518      C2061   1.485       .  S
O1519      C1529   1.266       .  A
O1519     Al1521   1.889       .  S
O1520      C1533   1.262       .  A
O1520     Al1530   1.913       .  S
Al1521     O1534   1.911       .  S
Al1521     O1531   1.943       .  S
Al1521     O1526   1.775       .  S
O1522      C1529   1.271       .  A
O1522     Al1530   1.934       .  S
O1523      C1532   1.267       .  A
O1523     Al1530   1.942       .  S
O1524     Al1530   1.902       .  S
O1525      C1532   1.256       .  A
O1526     Al1530   1.780       .  S
O1527      C1528   1.266       .  A
C1528      C2071   1.465       .  S
C1529      C2231   1.481       .  S
C1532      C2168   1.476       .  S
C1533      O1534   1.261       .  A
C1533      C2048   1.470       .  S
O1535      C1550   1.258       .  A
O1535     Al1543   1.883       .  S
C1536      O1546   1.265       .  A
C1536      O1537   1.263       .  A
O1537     Al1539   1.909       .  S
O1538      C1540   1.260       .  A
O1538     Al1539   1.898       .  S
Al1539     O1547   1.867       .  S
Al1539     O1549   1.924       .  S
Al1539     O1548   1.773       .  S
C1540      O1553   1.270       .  A
C1540      C2018   1.494       .  S
O1541      C1551   1.269       .  A
O1541     Al1543   1.907       .  S
O1542      C1555   1.263       .  A
O1542     Al1552   1.904       .  S
Al1543     O1556   1.917       .  S
Al1543     O1553   1.963       .  S
Al1543     O1548   1.776       .  S
O1544      C1551   1.271       .  A
O1544     Al1552   1.947       .  S
O1545      C1554   1.269       .  A
O1545     Al1552   1.961       .  S
O1546     Al1552   1.911       .  S
O1547      C1554   1.256       .  A
O1548     Al1552   1.781       .  S
O1549      C1550   1.264       .  A
C1550      C2031   1.467       .  S
C1551      C2218   1.497       .  S
C1554      C2131   1.484       .  S
C1555      O1556   1.264       .  A
C1555      C2041   1.474       .  S
O1557      C1572   1.258       .  A
O1557     Al1565   1.884       .  S
C1558      O1559   1.263       .  A
C1558      C1998   1.469       .  S
O1560      C1562   1.262       .  A
O1560     Al1561   1.904       .  S
Al1561     O1569   1.869       .  S
Al1561     O1571   1.913       .  S
Al1561     O1570   1.774       .  S
C1562      O1575   1.270       .  A
O1563      C1573   1.267       .  A
O1563     Al1565   1.908       .  S
O1564      C1577   1.264       .  A
O1564     Al1574   1.908       .  S
Al1565     O1578   1.916       .  S
Al1565     O1575   1.953       .  S
Al1565     O1570   1.773       .  S
O1566      C1573   1.269       .  A
O1566     Al1574   1.935       .  S
O1567      C1576   1.267       .  A
O1567     Al1574   1.954       .  S
O1568     Al1574   1.909       .  S
O1569      C1576   1.256       .  A
O1570     Al1574   1.780       .  S
O1571      C1572   1.262       .  A
C1572      C2068   1.467       .  S
C1573      C1991   1.495       .  S
C1576      C2088   1.481       .  S
C1577      O1578   1.265       .  A
C1577      C2011   1.472       .  S
O1579      C1594   1.258       .  A
O1579     Al1587   1.873       .  S
C1580      O1590   1.263       .  A
C1580      O1581   1.264       .  A
C1580      C2008   1.464       .  S
O1581     Al1583   1.918       .  S
O1582      C1584   1.258       .  A
O1582     Al1583   1.892       .  S
Al1583     O1591   1.853       .  S
Al1583     O1593   1.934       .  S
Al1583     O1592   1.770       .  S
C1584      O1597   1.268       .  A
C1584      C2058   1.486       .  S
O1585      C1595   1.266       .  A
O1585     Al1587   1.894       .  S
O1586      C1599   1.264       .  A
O1586     Al1596   1.904       .  S
Al1587     O1600   1.927       .  S
Al1587     O1597   1.951       .  S
Al1587     O1592   1.771       .  S
O1588      C1595   1.269       .  A
O1588     Al1596   1.936       .  S
O1589      C1598   1.267       .  A
O1589     Al1596   1.947       .  S
O1590     Al1596   1.899       .  S
O1591      C1598   1.253       .  A
O1592     Al1596   1.777       .  S
O1593      C1594   1.267       .  A
C1594      C2028   1.470       .  S
C1595      C1978   1.486       .  S
C1598      C2078   1.478       .  S
C1599      O1600   1.266       .  A
C1599      C2001   1.476       .  S
O1601      C1616   1.256       .  A
O1601     Al1609   1.866       .  S
C1602      O1612   1.266       .  A
C1602      O1603   1.266       .  A
C1602      C1968   1.477       .  S
O1603     Al1605   1.914       .  S
O1604      C1606   1.260       .  A
O1604     Al1605   1.900       .  S
Al1605     O1613   1.867       .  S
Al1605     O1615   1.928       .  S
Al1605     O1614   1.770       .  S
C1606      O1619   1.266       .  A
C1606      C1948   1.487       .  S
O1607      C1617   1.264       .  A
O1607     Al1609   1.892       .  S
O1608      C1621   1.264       .  A
O1608     Al1618   1.907       .  S
Al1609     O1622   1.922       .  S
Al1609     O1619   1.948       .  S
Al1609     O1614   1.773       .  S
O1610      C1617   1.274       .  A
O1610     Al1618   1.961       .  S
O1611      C1620   1.269       .  A
O1611     Al1618   1.961       .  S
O1612     Al1618   1.906       .  S
O1613      C1620   1.256       .  A
O1614     Al1618   1.778       .  S
O1615      C1616   1.265       .  A
C1616      C1941   1.452       .  S
C1617      C1988   1.493       .  S
C1620      C1931   1.489       .  S
C1621      O1622   1.264       .  A
O1623      C1638   1.254       .  A
O1623     Al1631   1.863       .  S
C1624      O1634   1.264       .  A
C1624      O1625   1.269       .  A
C1624      C1961   1.470       .  S
O1625     Al1627   1.934       .  S
O1626      C1628   1.260       .  A
O1626     Al1627   1.898       .  S
Al1627     O1635   1.863       .  S
Al1627     O1637   1.940       .  S
Al1627     O1636   1.767       .  S
C1628      O1641   1.268       .  A
C1628      C1918   1.486       .  S
O1629      C1639   1.262       .  A
O1629     Al1631   1.884       .  S
O1630      C1643   1.262       .  A
O1630     Al1640   1.896       .  S
Al1631     O1644   1.934       .  S
Al1631     O1641   1.954       .  S
Al1631     O1636   1.769       .  S
O1632      C1639   1.271       .  A
O1632     Al1640   1.949       .  S
O1633      C1642   1.267       .  A
O1633     Al1640   1.953       .  S
O1634     Al1640   1.893       .  S
O1635      C1642   1.255       .  A
O1636     Al1640   1.776       .  S
O1637      C1638   1.267       .  A
C1638      C1911   1.455       .  S
C1639      C1981   1.485       .  S
C1642      C1901   1.478       .  S
C1643      O1644   1.266       .  A
C1643      C1971   1.464       .  S
O1645      C1660   1.257       .  A
O1645     Al1653   1.868       .  S
C1646      O1656   1.264       .  A
C1646      O1647   1.266       .  A
C1646      C1888   1.469       .  S
O1647     Al1649   1.918       .  S
O1648      C1650   1.260       .  A
O1648     Al1649   1.901       .  S
Al1649     O1657   1.864       .  S
Al1649     O1659   1.932       .  S
Al1649     O1658   1.769       .  S
C1650      O1663   1.267       .  A
C1650      C1951   1.486       .  S
O1651      C1661   1.263       .  A
O1651     Al1653   1.886       .  S
O1652      C1665   1.263       .  A
O1652     Al1662   1.903       .  S
Al1653     O1666   1.931       .  S
Al1653     O1663   1.949       .  S
Al1653     O1658   1.768       .  S
O1654      C1661   1.271       .  A
O1654     Al1662   1.951       .  S
O1655      C1664   1.269       .  A
O1655     Al1662   1.956       .  S
O1656     Al1662   1.903       .  S
O1657      C1664   1.256       .  A
O1658     Al1662   1.777       .  S
O1659      C1660   1.265       .  A
C1660      C1908   1.454       .  S
C1661      C2441   1.488       .  S
C1664      C1868   1.484       .  S
C1665      O1666   1.266       .  A
C1665      C1878   1.468       .  S
C1668      O1678   1.266       .  A
C1668      O1669   1.267       .  A
C1668      C1881   1.476       .  S
O1669     Al1671   1.922       .  S
O1670      C1672   1.262       .  A
O1670     Al1671   1.901       .  S
Al1671     O1679   1.871       .  S
Al1671     O1681   1.929       .  S
Al1671     O1680   1.770       .  S
C1672      O1685   1.268       .  A
C1672      C1921   1.487       .  S
O1673      C1683   1.262       .  A
O1673     Al1675   1.891       .  S
O1674      C1687   1.263       .  A
Al1675     O1685   1.948       .  S
Al1675     O1680   1.772       .  S
O1676      C1683   1.273       .  A
O1676     Al1684   1.954       .  S
O1677      C1686   1.269       .  A
O1677     Al1684   1.963       .  S
O1678     Al1684   1.904       .  S
O1679      C1686   1.256       .  A
O1680     Al1684   1.777       .  S
O1681      C1682   1.264       .  A
C1683      C2398   1.493       .  S
C1686      C1858   1.485       .  S
C1687      O1688   1.266       .  A
C1687      C1891   1.468       .  S
O1689      C1704   1.258       .  A
O1689     Al1697   1.873       .  S
C1690      O1700   1.263       .  A
C1690      O1691   1.265       .  A
C1690      C1818   1.467       .  S
O1691     Al1693   1.922       .  S
O1692      C1694   1.259       .  A
O1692     Al1693   1.897       .  S
Al1693     O1701   1.867       .  S
Al1693     O1703   1.935       .  S
Al1693     O1702   1.767       .  S
C1694      O1707   1.266       .  A
C1694      C1838   1.480       .  S
O1695      C1705   1.261       .  A
O1695     Al1697   1.882       .  S
O1696      C1709   1.263       .  A
O1696     Al1706   1.898       .  S
Al1697     O1710   1.929       .  S
Al1697     O1707   1.941       .  S
Al1697     O1702   1.771       .  S
O1698      C1705   1.270       .  A
O1698     Al1706   1.940       .  S
O1699      C1708   1.268       .  A
O1699     Al1706   1.952       .  S
O1700     Al1706   1.899       .  S
O1701      C1708   1.258       .  A
O1702     Al1706   1.776       .  S
O1703      C1704   1.267       .  A
C1704      C1851   1.469       .  S
C1705      C2161   1.481       .  S
C1708      C1871   1.483       .  S
C1709      O1710   1.265       .  A
C1709      C1828   1.467       .  S
O1711      C1726   1.260       .  A
O1711     Al1719   1.880       .  S
C1712      O1713   1.263       .  A
C1712      C1831   1.469       .  S
Al1715     O1723   1.878       .  S
Al1715     O1725   1.920       .  S
Al1715     O1724   1.775       .  S
C1716      O1729   1.265       .  A
O1717      C1727   1.266       .  A
O1717     Al1719   1.901       .  S
O1718      C1731   1.263       .  A
O1718     Al1728   1.909       .  S
Al1719     O1732   1.914       .  S
Al1719     O1729   1.939       .  S
Al1719     O1724   1.778       .  S
O1720      C1727   1.269       .  A
O1720     Al1728   1.936       .  S
O1721      C1730   1.266       .  A
O1721     Al1728   1.945       .  S
O1722     Al1728   1.909   1_554  S
O1723      C1730   1.258       .  A
O1724     Al1728   1.780       .  S
O1725      C1726   1.265       .  A
C1726      C1808   1.468       .  S
C1727      C2121   1.490       .  S
C1730      C1861   1.484       .  S
C1731      O1732   1.263       .  A
C1731      C1821   1.471       .  S
O1733      C1748   1.258       .  A
O1733     Al1741   1.879       .  S
C1734      O1744   1.264       .  A
C1734      O1735   1.264       .  A
O1735     Al1737   1.912       .  S
O1736      C1738   1.260       .  A
O1736     Al1737   1.897       .  S
Al1737     O1745   1.869       .  S
Al1737     O1747   1.929       .  S
Al1737     O1746   1.768       .  S
C1738      O1751   1.268       .  A
C1738      C1801   1.486       .  S
O1739      C1749   1.265       .  A
O1739     Al1741   1.894       .  S
O1740      C1753   1.262       .  A
O1740     Al1750   1.900       .  S
Al1741     O1754   1.922       .  S
Al1741     O1751   1.950       .  S
Al1741     O1746   1.775       .  S
O1742      C1749   1.274       .  A
O1742     Al1750   1.955       .  S
O1743      C1752   1.270       .  A
O1743     Al1750   1.964       .  S
O1744     Al1750   1.906       .  S
O1745      C1752   1.257       .  A
O1746     Al1750   1.777       .  S
O1747      C1748   1.266       .  A
C1748      C1848   1.467       .  S
C1749      C2278   1.494       .  S
C1752      C1928   1.491       .  S
C1753      O1754   1.264       .  A
C1753      C1788   1.467       .  S
O1755      C1770   1.259       .  A
O1755     Al1763   1.882       .  S
C1756      O1766   1.263       .  A
C1756      O1757   1.263       .  A
C1756      C1791   1.469       .  S
O1757     Al1759   1.909       .  S
O1758      C1760   1.260       .  A
O1758     Al1759   1.899       .  S
Al1759     O1767   1.871       .  S
Al1759     O1769   1.922       .  S
Al1759     O1768   1.772       .  S
C1760      O1773   1.265       .  A
C1760      C1841   1.482       .  S
O1761      C1771   1.265       .  A
O1761     Al1763   1.892       .  S
O1762      C1775   1.262       .  A
O1762     Al1772   1.904       .  S
Al1763     O1776   1.915       .  S
Al1763     O1773   1.939       .  S
Al1763     O1768   1.775       .  S
O1764      C1771   1.268       .  A
O1764     Al1772   1.927       .  S
O1765      C1774   1.265       .  A
O1765     Al1772   1.937       .  S
O1766     Al1772   1.905       .  S
O1767      C1774   1.258       .  A
O1768     Al1772   1.778       .  S
O1769      C1770   1.265       .  A
C1770      C1811   1.465       .  S
C1771      C2261   1.482       .  S
C1774      C1898   1.475       .  S
C1775      O1776   1.262       .  A
C1775      C1778   1.464       .  S
C1777      C1778   1.404       .  A
C1777      C1782   1.398       .  A
C1777      H1784   1.084       .  S
C1778      C1779   1.401       .  A
C1779      C1780   1.396       .  A
C1779      F1786   1.358       .  S
C1780      C1781   1.406       .  A
C1780      H1785   1.084       .  S
C1781      C1782   1.404       .  A
C1782      F1783   1.357       .  S
C1787      C1788   1.404       .  A
C1787      C1792   1.397       .  A
C1787      H1794   1.084       .  S
C1788      C1789   1.404       .  A
C1789      C1790   1.396       .  A
C1789      F1796   1.358       .  S
C1790      C1791   1.405       .  A
C1790      H1795   1.084       .  S
C1791      C1792   1.403       .  A
C1792      F1793   1.357       .  S
C1797      C1798   1.405       .  A
C1797      C1802   1.404       .  A
C1797      H1804   1.083       .  S
C1799      F1806   1.358       .  S
C1800      C1801   1.405       .  A
C1800      H1805   1.083       .  S
C1801      C1802   1.410       .  A
C1802      F1803   1.358       .  S
C1807      C1808   1.403       .  A
C1807      C1812   1.394       .  A
C1807      H1814   1.083       .  S
C1808      C1809   1.407       .  A
C1809      C1810   1.393       .  A
C1809      F1816   1.358       .  S
C1810      C1811   1.402       .  A
C1810      H1815   1.084       .  S
C1811      C1812   1.405       .  A
C1812      F1813   1.358       .  S
C1817      C1818   1.400       .  A
C1817      C1822   1.396       .  A
C1817      H1824   1.084       .  S
C1818      C1819   1.406       .  A
C1819      C1820   1.399       .  A
C1819      F1826   1.358       .  S
C1820      C1821   1.403       .  A
C1820      H1825   1.083       .  S
C1821      C1822   1.408       .  A
C1822      F1823   1.358       .  S
C1827      C1828   1.400       .  A
C1827      C1832   1.394       .  A
C1827      H1834   1.084       .  S
C1828      C1829   1.407       .  A
C1829      C1830   1.400       .  A
C1829      F1836   1.358       .  S
C1830      C1831   1.403       .  A
C1830      H1835   1.083       .  S
C1831      C1832   1.406       .  A
C1832      F1833   1.358       .  S
C1837      C1838   1.406       .  A
C1837      C1842   1.400       .  A
C1837      H1844   1.084       .  S
C1838      C1839   1.407       .  A
C1839      C1840   1.402       .  A
C1839      F1846   1.358       .  S
C1840      C1841   1.407       .  A
C1840      H1845   1.084       .  S
C1841      C1842   1.406       .  A
C1842      F1843   1.357       .  S
C1847      C1848   1.401       .  A
C1847      C1852   1.393       .  A
C1847      H1854   1.084       .  S
C1848      C1849   1.407       .  A
C1849      C1850   1.396       .  A
C1849      F1856   1.358       .  S
C1850      C1851   1.403       .  A
C1850      H1855   1.084       .  S
C1851      C1852   1.408       .  A
C1852      F1853   1.358       .  S
C1857      C1858   1.408       .  A
C1857      C1862   1.411   1_455  A
C1857      H1864   1.083       .  S
C1858      C1859   1.408       .  A
C1859      C1860   1.392   1_455  A
C1859      F1866   1.358       .  S
C1860      C1861   1.402       .  A
C1860      H1865   1.084       .  S
C1861      C1862   1.410       .  A
C1862      F1863   1.357       .  S
C1867      C1868   1.408       .  A
C1867      C1872   1.409   1_455  A
C1867      H1874   1.083       .  S
C1868      C1869   1.409       .  A
C1869      C1870   1.388   1_455  A
C1869      F1876   1.358       .  S
C1870      C1871   1.403       .  A
C1870      H1875   1.084       .  S
C1871      C1872   1.410       .  A
C1872      F1873   1.357       .  S
C1877      C1878   1.404       .  A
C1877      C1882   1.399       .  A
C1877      H1884   1.084       .  S
C1878      C1879   1.402       .  A
C1879      C1880   1.397       .  A
C1879      F1886   1.358       .  S
C1880      C1881   1.406       .  A
C1880      H1885   1.083       .  S
C1881      C1882   1.406       .  A
C1882      F1883   1.357       .  S
C1887      C1888   1.403       .  A
C1887      C1892   1.396       .  A
C1887      H1894   1.084       .  S
C1888      C1889   1.405       .  A
C1889      C1890   1.398       .  A
C1889      F1896   1.358       .  S
C1890      C1891   1.404       .  A
C1890      H1895   1.084       .  S
C1891      C1892   1.404       .  A
C1892      F1893   1.358       .  S
C1897      C1898   1.400       .  A
C1897      C1902   1.388   1_655  A
C1897      H1904   1.084       .  S
C1898      C1899   1.408       .  A
C1899      C1900   1.407   1_655  A
C1899      F1906   1.357       .  S
C1900      C1901   1.406       .  A
C1900      H1905   1.083       .  S
C1901      C1902   1.407       .  A
C1902      F1903   1.358       .  S
C1907      C1908   1.404       .  A
C1907      C1912   1.405       .  A
C1907      H1914   1.083       .  S
C1908      C1909   1.400       .  A
C1909      C1910   1.379       .  A
C1909      F1916   1.359       .  S
C1910      C1911   1.396       .  A
C1910      H1915   1.084       .  S
C1911      C1912   1.404       .  A
C1912      F1913   1.356       .  S
C1917      C1918   1.404       .  A
C1917      C1922   1.403       .  A
C1917      H1924   1.083       .  S
C1918      C1919   1.408       .  A
C1919      C1920   1.401       .  A
C1919      F1926   1.352       .  S
C1920      C1921   1.403       .  A
C1920      H1925   1.083       .  S
C1921      C1922   1.410       .  A
C1922      F1923   1.354       .  S
C1927      C1928   1.410       .  A
C1927      C1932   1.413   1_655  A
C1927      H1934   1.083       .  S
C1928      C1929   1.409       .  A
C1929      C1930   1.390   1_655  A
C1929      F1936   1.358       .  S
C1930      C1931   1.404       .  A
C1930      H1935   1.084       .  S
C1931      C1932   1.410       .  A
C1932      F1933   1.357       .  S
C1937      C1938   1.396       .  A
C1937      C1942   1.377       .  A
C1937      H1944   1.084       .  S
C1938      C1939   1.404       .  A
C1939      C1940   1.405       .  A
C1939      F1946   1.357       .  S
C1940      C1941   1.404       .  A
C1940      H1945   1.083       .  S
C1941      C1942   1.399       .  A
C1942      F1943   1.358       .  S
C1947      C1948   1.408       .  A
C1947      C1952   1.404       .  A
C1947      H1954   1.081       .  S
C1948      C1949   1.406       .  A
C1949      C1950   1.401       .  A
C1949      F1956   1.357       .  S
C1950      C1951   1.407       .  A
C1950      H1955   1.080       .  S
C1951      C1952   1.406       .  A
C1952      F1953   1.358       .  S
C1957      C1958   1.404       .  A
C1957      C1962   1.396       .  A
C1957      H1964   1.084       .  S
C1958      C1959   1.407       .  A
C1959      C1960   1.400       .  A
C1959      F1966   1.358   1_556  S
C1960      C1961   1.403       .  A
C1960      H1965   1.083       .  S
C1961      C1962   1.403       .  A
C1962      F1963   1.358       .  S
C1967      C1968   1.406       .  A
C1967      C1972   1.394       .  A
C1967      H1974   1.083       .  S
C1968      C1969   1.408       .  A
C1969      C1970   1.401       .  A
C1969      F1976   1.357       .  S
C1970      C1971   1.402       .  A
C1970      H1975   1.083       .  S
C1971      C1972   1.401       .  A
C1972      F1973   1.359       .  S
C1977      C1978   1.404       .  A
C1977      C1982   1.396       .  A
C1977      H1984   1.083       .  S
C1978      C1979   1.412       .  A
C1979      C1980   1.401       .  A
C1979      F1986   1.357       .  S
C1980      C1981   1.405       .  A
C1980      H1985   1.083       .  S
C1981      C1982   1.411       .  A
C1982      F1983   1.358       .  S
C1987      C1988   1.409       .  A
C1987      C1992   1.402       .  A
C1987      H1994   1.083       .  S
C1988      C1989   1.408       .  A
C1989      C1990   1.403       .  A
C1989      F1996   1.357       .  S
C1990      C1991   1.410       .  A
C1990      H1995   1.083       .  S
C1991      C1992   1.409       .  A
C1992      F1993   1.357       .  S
C1997      C1998   1.401       .  A
C1997      C2002   1.398       .  A
C1997      H2004   1.084       .  S
C1998      C1999   1.406       .  A
C1999      C2000   1.399       .  A
C1999      F2006   1.358       .  S
C2000      C2001   1.403       .  A
C2000      H2005   1.083       .  S
C2001      C2002   1.409       .  A
C2002      F2003   1.358       .  S
C2007      C2008   1.399       .  A
C2007      C2012   1.394       .  A
C2007      H2014   1.084       .  S
C2008      C2009   1.405       .  A
C2009      C2010   1.400       .  A
C2009      F2016   1.357       .  S
C2010      C2011   1.404       .  A
C2010      H2015   1.083       .  S
C2011      C2012   1.408       .  A
C2012      F2013   1.358       .  S
C2017      C2018   1.407   1_554  A
C2017      H2024   1.083       .  S
C2018      C2019   1.411       .  A
C2019      C2020   1.407       .  A
C2019      F2026   1.357       .  S
C2020      C2021   1.406   1_556  A
C2020      H2025   1.083       .  S
C2022      F2023   1.358       .  S
C2027      C2028   1.405       .  A
C2027      C2032   1.393       .  A
C2027      H2034   1.084       .  S
C2028      C2029   1.405       .  A
C2029      C2030   1.396       .  A
C2029      F2036   1.357       .  S
C2030      C2031   1.404       .  A
C2030      H2035   1.084       .  S
C2031      C2032   1.404       .  A
C2032      F2033   1.358       .  S
C2037      C2038   1.403       .  A
C2037      C2042   1.399       .  A
C2037      H2044   1.084       .  S
C2038      C2039   1.400       .  A
C2039      C2040   1.395       .  A
C2039      F2046   1.358       .  S
C2040      C2041   1.407       .  A
C2040      H2045   1.084       .  S
C2041      C2042   1.406       .  A
C2042      F2043   1.358       .  S
C2047      C2048   1.400       .  A
C2047      C2052   1.398       .  A
C2047      H2054   1.083       .  S
C2048      C2049   1.408       .  A
C2049      C2050   1.397       .  A
C2049      F2056   1.358       .  S
C2050      C2051   1.400       .  A
C2050      H2055   1.084       .  S
C2051      C2052   1.408       .  A
C2052      F2053   1.358       .  S
C2057      C2058   1.407       .  A
C2057      C2062   1.402       .  A
C2057      H2064   1.083       .  S
C2058      C2059   1.409       .  A
C2059      C2060   1.402       .  A
C2059      F2066   1.358       .  S
C2060      C2061   1.407       .  A
C2060      H2065   1.084       .  S
C2061      C2062   1.406       .  A
C2062      F2063   1.357       .  S
C2067      C2068   1.403       .  A
C2067      C2072   1.392       .  A
C2067      H2074   1.084       .  S
C2068      C2069   1.406       .  A
C2069      C2070   1.393       .  A
C2069      F2076   1.358       .  S
C2070      C2071   1.402       .  A
C2070      H2075   1.084       .  S
C2071      C2072   1.405       .  A
C2072      F2073   1.358       .  S
C2077      C2078   1.407       .  A
C2077      C2082   1.405       .  A
C2077      H2084   1.083       .  S
C2078      C2079   1.409       .  A
C2079      C2080   1.384       .  A
C2079      F2086   1.359       .  S
C2080      C2081   1.403       .  A
C2080      H2085   1.083       .  S
C2081      C2082   1.409       .  A
C2082      F2083   1.357       .  S
C2087      C2088   1.407       .  A
C2087      C2092   1.409       .  A
C2087      H2094   1.083       .  S
C2088      C2089   1.407       .  A
C2089      C2090   1.390       .  A
C2089      F2096   1.359       .  S
C2090      C2091   1.402       .  A
C2090      H2095   1.084       .  S
C2091      C2092   1.408       .  A
C2092      F2093   1.357       .  S
C2097      C2098   1.402       .  A
C2097      C2102   1.397       .  A
C2097      H2104   1.084       .  S
C2098      C2099   1.407       .  A
C2099      C2100   1.396       .  A
C2099      F2106   1.358       .  S
C2100      C2101   1.400       .  A
C2100      H2105   1.084       .  S
C2101      C2102   1.405       .  A
C2102      F2103   1.358       .  S
C2107      C2108   1.401       .  A
C2107      C2112   1.396       .  A
C2107      H2114   1.084       .  S
C2108      C2109   1.409       .  A
C2109      C2110   1.400       .  A
C2109      F2116   1.357       .  S
C2110      C2111   1.401       .  A
C2110      H2115   1.083       .  S
C2111      C2112   1.408       .  A
C2112      F2113   1.358       .  S
C2117      C2118   1.406       .  A
C2117      C2122   1.400       .  A
C2117      H2124   1.083       .  S
C2118      C2119   1.411       .  A
C2119      C2120   1.401       .  A
C2119      F2126   1.357       .  S
C2120      C2121   1.406       .  A
C2120      H2125   1.083       .  S
C2121      C2122   1.411       .  A
C2122      F2123   1.357       .  S
C2127      C2128   1.402       .  A
C2127      C2132   1.389       .  A
C2127      H2134   1.084       .  S
C2128      C2129   1.410       .  A
C2129      C2130   1.412       .  A
C2129      F2136   1.357       .  S
C2130      C2131   1.408       .  A
C2130      H2135   1.083       .  S
C2131      C2132   1.408       .  A
C2132      F2133   1.358       .  S
C2137      C2138   1.404   1_554  A
C2137      H2144   1.084       .  S
C2138      C2139   1.406       .  A
C2139      C2140   1.393       .  A
C2139      F2146   1.358       .  S
C2140      C2141   1.403   1_556  A
C2140      H2145   1.084       .  S
C2142      F2143   1.358       .  S
C2147      C2148   1.407       .  A
C2147      C2152   1.402       .  A
C2147      H2154   1.084       .  S
C2148      C2149   1.407       .  A
C2149      C2150   1.403       .  A
C2149      F2156   1.358       .  S
C2150      C2151   1.408       .  A
C2150      H2155   1.084       .  S
C2151      C2152   1.407       .  A
C2152      F2153   1.358       .  S
C2157      C2158   1.404       .  A
C2157      C2162   1.394       .  A
C2157      H2164   1.083       .  S
C2158      C2159   1.409       .  A
C2159      C2160   1.398       .  A
C2159      F2166   1.358       .  S
C2160      C2161   1.405       .  A
C2160      H2165   1.083       .  S
C2161      C2162   1.410       .  A
C2162      F2163   1.358       .  S
C2167      C2168   1.404       .  A
C2167      C2172   1.388       .  A
C2167      H2174   1.084       .  S
C2168      C2169   1.407       .  A
C2169      C2170   1.404       .  A
C2169      F2176   1.357       .  S
C2170      C2171   1.406       .  A
C2170      H2175   1.083       .  S
C2171      C2172   1.404       .  A
C2172      F2173   1.359       .  S
C2177      C2178   1.402       .  A
C2177      C2182   1.392       .  A
C2177      H2184   1.084       .  S
C2178      C2179   1.405       .  A
C2179      C2180   1.391       .  A
C2179      F2186   1.358       .  S
C2180      C2181   1.401       .  A
C2180      H2185   1.084       .  S
C2181      C2182   1.405       .  A
C2182      F2183   1.358       .  S
C2187      C2188   1.403       .  A
C2187      C2192   1.398       .  A
C2187      H2194   1.084       .  S
C2188      C2189   1.403       .  A
C2189      C2190   1.398       .  A
C2189      F2196   1.358       .  S
C2190      C2191   1.407       .  A
C2190      H2195   1.083       .  S
C2191      C2192   1.406       .  A
C2192      F2193   1.358       .  S
C2197      C2198   1.402       .  A
C2197      C2202   1.397       .  A
C2197      H2204   1.083       .  S
C2198      C2199   1.408       .  A
C2199      C2200   1.396       .  A
C2199      F2206   1.358       .  S
C2200      C2201   1.400       .  A
C2200      H2205   1.084       .  S
C2201      C2202   1.404       .  A
C2202      F2203   1.358       .  S
C2207      C2208   1.407       .  A
C2207      C2212   1.401       .  A
C2207      H2214   1.084       .  S
C2208      C2209   1.407       .  A
C2209      C2210   1.399       .  A
C2209      F2216   1.358       .  S
C2210      C2211   1.406       .  A
C2210      H2215   1.084       .  S
C2211      C2212   1.405       .  A
C2212      F2213   1.357       .  S
C2217      C2218   1.408       .  A
C2217      C2222   1.404       .  A
C2217      H2224   1.083       .  S
C2218      C2219   1.411       .  A
C2219      C2220   1.406       .  A
C2219      F2226   1.357       .  S
C2220      C2221   1.408       .  A
C2220      H2225   1.083       .  S
C2221      C2222   1.411       .  A
C2222      F2223   1.357       .  S
C2227      C2228   1.408       .  A
C2227      C2232   1.395       .  A
C2227      H2234   1.083       .  S
C2228      C2229   1.407       .  A
C2229      C2230   1.399       .  A
C2229      F2236   1.357       .  S
C2230      C2231   1.408       .  A
C2230      H2235   1.083       .  S
C2231      C2232   1.406       .  A
C2232      F2233   1.358       .  S
C2237      C2238   1.406       .  A
C2237      C2242   1.398       .  A
C2237      H2244   1.083       .  S
C2238      C2239   1.407       .  A
C2239      C2240   1.397       .  A
C2239      F2246   1.358       .  S
C2240      C2241   1.401       .  A
C2240      H2245   1.084       .  S
C2241      C2242   1.402       .  A
C2242      F2243   1.358       .  S
C2247      C2248   1.407       .  A
C2247      H2254   1.084       .  S
C2248      C2249   1.403       .  A
C2249      F2256   1.357       .  S
C2250      C2251   1.405       .  A
C2250      H2255   1.084       .  S
C2251      C2252   1.403       .  A
C2252      F2253   1.358       .  S
C2257      C2258   1.403       .  A
C2257      C2262   1.398       .  A
C2257      H2264   1.083       .  S
C2258      C2259   1.413       .  A
C2259      C2260   1.395       .  A
C2259      F2266   1.358       .  S
C2260      C2261   1.404       .  A
C2260      H2265   1.083       .  S
C2261      C2262   1.411       .  A
C2262      F2263   1.357       .  S
C2267      C2268   1.409       .  A
C2267      C2272   1.391   1_565  A
C2267      H2274   1.083       .  S
C2268      C2269   1.409       .  A
C2269      C2270   1.412   1_565  A
C2269      F2276   1.356       .  S
C2270      C2271   1.412       .  A
C2270      H2275   1.083       .  S
C2271      C2272   1.408       .  A
C2272      F2273   1.358       .  S
C2277      C2278   1.411       .  A
C2277      C2282   1.405       .  A
C2277      H2284   1.083       .  S
C2278      C2279   1.408       .  A
C2279      C2280   1.401       .  A
C2279      F2286   1.358       .  S
C2280      C2281   1.411       .  A
C2280      H2285   1.083       .  S
C2281      C2282   1.408       .  A
C2282      F2283   1.357       .  S
C2287      C2288   1.403       .  A
C2287      C2292   1.386   1_545  A
C2287      H2294   1.084       .  S
C2288      C2289   1.405       .  A
C2289      C2290   1.406   1_545  A
C2289      F2296   1.357       .  S
C2290      C2291   1.407       .  A
C2290      H2295   1.083       .  S
C2291      C2292   1.402       .  A
C2292      F2293   1.359       .  S
C2297      C2298   1.407       .  A
C2297      H2304   1.084       .  S
C2298      C2299   1.408       .  A
C2299      F2306   1.357       .  S
C2300      C2301   1.404       .  A
C2300      H2305   1.083       .  S
C2301      C2302   1.400       .  A
C2302      F2303   1.358       .  S
C2307      C2308   1.405       .  A
C2307      C2312   1.403       .  A
C2307      H2314   1.083       .  S
C2308      C2309   1.406       .  A
C2309      C2310   1.396       .  A
C2309      F2316   1.358       .  S
C2310      C2311   1.404       .  A
C2310      H2315   1.084       .  S
C2311      C2312   1.408       .  A
C2312      F2313   1.357       .  S
C2317      C2318   1.402       .  A
C2317      C2322   1.398       .  A
C2317      H2324   1.083       .  S
C2318      C2319   1.413       .  A
C2319      C2320   1.397       .  A
C2319      F2326   1.358       .  S
C2320      C2321   1.402       .  A
C2320      H2325   1.083       .  S
C2321      C2322   1.413       .  A
C2322      F2323   1.358       .  S
C2327      C2328   1.406       .  A
C2327      C2332   1.406       .  A
C2327      H2334   1.083       .  S
C2328      C2329   1.413       .  A
C2329      C2330   1.400       .  A
C2329      F2336   1.358       .  S
C2330      C2331   1.403       .  A
C2330      H2335   1.083       .  S
C2331      C2332   1.413       .  A
C2332      F2333   1.357       .  S
C2337      C2338   1.402       .  A
C2337      C2342   1.394       .  A
C2337      H2344   1.083       .  S
C2338      C2339   1.414       .  A
C2339      C2340   1.395       .  A
C2339      F2346   1.357       .  S
C2340      C2341   1.398       .  A
C2340      H2345   1.083       .  S
C2341      C2342   1.411       .  A
C2342      F2343   1.359       .  S
C2347      C2348   1.409       .  A
C2347      C2352   1.401       .  A
C2347      H2354   1.083       .  S
C2348      C2349   1.409       .  A
C2349      C2350   1.402       .  A
C2349      F2356   1.357       .  S
C2350      C2351   1.409       .  A
C2350      H2355   1.083       .  S
C2351      C2352   1.409       .  A
C2352      F2353   1.357       .  S
C2357      C2358   1.407       .  A
C2357      C2362   1.403       .  A
C2357      H2364   1.082       .  S
C2358      C2359   1.406       .  A
C2359      C2360   1.400       .  A
C2359      F2366   1.358       .  S
C2360      C2361   1.406       .  A
C2360      H2365   1.084       .  S
C2361      C2362   1.405       .  A
C2362      F2363   1.357       .  S
C2367      C2368   1.402       .  A
C2367      C2372   1.398       .  A
C2367      H2374   1.083       .  S
C2368      C2369   1.404       .  A
C2369      C2370   1.392       .  A
C2369      F2376   1.358       .  S
C2370      C2371   1.404       .  A
C2370      H2375   1.084       .  S
C2371      C2372   1.407       .  A
C2372      F2373   1.358       .  S
C2377      C2378   1.409       .  A
C2377      C2382   1.396       .  A
C2377      H2384   1.084       .  S
C2378      C2379   1.407       .  A
C2379      C2380   1.411       .  A
C2379      F2386   1.357       .  S
C2380      C2381   1.413       .  A
C2380      H2385   1.083       .  S
C2381      C2382   1.406       .  A
C2382      F2383   1.358       .  S
C2387      C2388   1.404       .  A
C2387      C2392   1.409       .  A
C2387      H2394   1.083       .  S
C2388      C2389   1.414       .  A
C2389      C2390   1.396       .  A
C2389      F2396   1.359       .  S
C2390      C2391   1.401       .  A
C2390      H2395   1.083       .  S
C2391      C2392   1.416       .  A
C2392      F2393   1.357       .  S
C2397      C2398   1.406       .  A
C2397      C2402   1.400       .  A
C2397      H2404   1.083       .  S
C2398      C2399   1.412       .  A
C2399      C2400   1.403       .  A
C2399      F2406   1.358       .  S
C2400      C2401   1.407       .  A
C2400      H2405   1.083       .  S
C2401      C2402   1.410       .  A
C2402      F2403   1.357       .  S
C2407      C2412   1.391   1_545  A
C2407      H2414   1.084       .  S
C2408      C2409   1.409       .  A
C2409      C2410   1.407   1_545  A
C2409      F2416   1.357       .  S
C2410      C2411   1.405       .  A
C2410      H2415   1.083       .  S
C2412      F2413   1.358       .  S
C2417      C2418   1.404       .  A
C2417      C2422   1.403       .  A
C2417      H2424   1.083       .  S
C2418      C2419   1.409       .  A
C2419      C2420   1.403       .  A
C2419      F2426   1.358       .  S
C2420      C2421   1.406       .  A
C2420      H2425   1.083       .  S
C2421      C2422   1.411       .  A
C2422      F2423   1.357       .  S
C2427      C2428   1.402       .  A
C2427      C2432   1.390       .  A
C2427      H2434   1.084       .  S
C2428      C2429   1.405       .  A
C2429      C2430   1.392       .  A
C2429      F2436   1.358       .  S
C2430      C2431   1.404       .  A
C2430      H2435   1.084       .  S
C2431      C2432   1.405       .  A
C2437      C2438   1.408       .  A
C2437      C2442   1.401       .  A
C2437      H2444   1.083       .  S
C2438      C2439   1.408       .  A
C2439      C2440   1.398       .  A
C2439      F2446   1.357       .  S
C2440      C2441   1.407       .  A
C2440      H2445   1.083       .  S
C2441      C2442   1.409       .  A
C2442      F2443   1.357       .  S
C2447      C2448   1.403       .  A
C2447      C2452   1.394   1_565  A
C2447      H2454   1.084       .  S
C2448      C2449   1.408       .  A
C2449      C2450   1.403   1_565  A
C2449      F2456   1.357       .  S
C2450      C2451   1.407       .  A
C2450      H2455   1.083       .  S
C2451      C2452   1.408       .  A
C2452      F2453   1.358       .  S
C2457      C2458   1.405       .  A
C2457      C2462   1.403       .  A
C2457      H2464   1.083       .  S
C2458      C2459   1.411       .  A
C2459      C2460   1.404       .  A
C2459      F2466   1.358       .  S
C2460      C2461   1.405       .  A
C2460      H2465   1.083       .  S
C2461      C2462   1.411       .  A
C2462      F2463   1.357       .  S
C2467      C2468   1.401       .  A
C2467      C2472   1.396       .  A
C2467      H2474   1.083       .  S
C2468      C2469   1.407       .  A
C2469      C2470   1.399       .  A
C2469      F2476   1.358       .  S
C2470      C2471   1.401       .  A
C2470      H2475   1.083       .  S
C2471      C2472   1.407       .  A
C2472      F2473   1.358       .  S
C2477      C2478   1.404       .  A
C2477      C2482   1.396       .  A
C2477      H2484   1.084       .  S
C2478      C2479   1.402       .  A
C2479      C2480   1.397       .  A
C2479      F2486   1.358       .  S
C2480      C2481   1.405       .  A
C2480      H2485   1.084       .  S
C2481      C2482   1.404       .  A
C2482      F2483   1.358       .  S
C2487      C2488   1.404       .  A
C2487      C2492   1.393       .  A
C2487      H2494   1.084       .  S
C2488      C2489   1.408       .  A
C2489      C2490   1.397       .  A
C2489      F2496   1.358       .  S
C2490      C2491   1.402       .  A
C2490      H2495   1.084       .  S
C2491      C2492   1.405       .  A
C2492      F2493   1.358       .  S
