geometry optimzed in LAMMPS
_audit_creation_date              2020-12-01 
_audit_creation_method            'lammps2cif' 
_symmetry_space_group_name_H-M    'P1' 
_symmetry_Int_Tables_number       1 
_symmetry_cell_setting            triclinic 
loop_ 
_symmetry_equiv_pos_as_xyz 
  x,y,z 
_cell_length_a                    51.34647297 
_cell_length_b                    51.43988121581078 
_cell_length_c                    32.69422681835018 
_cell_angle_alpha                 90.124654521354 
_cell_angle_beta                  90.11354843183547 
_cell_angle_gamma                 89.92994023683232 
loop_ 
_atom_site_label 
_atom_site_type_symbol 
_atom_site_fract_x 
_atom_site_fract_y 
_atom_site_fract_z 
_atom_site_charge 
Zn1        Zn  0.57311987  0.07175193  0.64976612     1.49700
Zn2        Zn  0.57478070  0.13012534  0.67624296     1.49400
Zn3        Zn  0.51952372  0.10421183  0.65706174     1.49100
Zn4        Zn  0.55224782  0.08828631  0.73725207     1.49500
O5          O  0.55456862  0.09857382  0.67997430    -1.83300
O6          O  0.60332677  0.08560093  0.61744188    -0.73900
O7          O  0.55260478  0.15922181  0.65702398    -0.73700
O8          O  0.51168347  0.07688741  0.61300282    -0.73200
O9          O  0.60430459  0.12670605  0.63755861    -0.73900
O10         O  0.54895614  0.05481841  0.61053010    -0.73500
O11         O  0.51535901  0.14155184  0.63640761    -0.74100
O12         O  0.51562838  0.09071513  0.75738658    -0.73500
O13         O  0.58968141  0.14062514  0.73014853    -0.74300
O14         O  0.49261430  0.10165390  0.70230847    -0.73600
O15         O  0.57339749  0.11186325  0.77363333    -0.74100
O16         O  0.56594042  0.05228837  0.74574047    -0.74000
O17         O  0.58624921  0.04377786  0.68712055    -0.73800
C18         C  0.61337559  0.10815494  0.61622350     0.78000
C19         C  0.52987015  0.16140261  0.64200463     0.78500
C20         C  0.52558731  0.05829757  0.59884800     0.77400
C21         C  0.49417858  0.09688706  0.74049160     0.77800
C22         C  0.58719864  0.13180280  0.76617534     0.78900
C23         C  0.58045974  0.03791381  0.72375665     0.78000
Zn24       Zn  0.38575827  0.90860027  0.28868399     1.49700
Zn25       Zn  0.44424992  0.93021994  0.29177400     1.49400
Zn26       Zn  0.42589497  0.88775343  0.35763514     1.49100
Zn27       Zn  0.43320216  0.87221380  0.26468404     1.49500
O28         O  0.42217668  0.89978187  0.30099417    -1.83300
O29         O  0.38208525  0.94618744  0.27212083    -0.73900
O30         O  0.45895822  0.94335395  0.34503451    -0.73700
O31         O  0.39074829  0.88664224  0.38460673    -0.73200
O32         O  0.42305898  0.95944165  0.26823823    -0.73900
O33         O  0.36335952  0.90173317  0.33788838    -0.73500
O34         O  0.44700641  0.91353683  0.39042339    -0.74100
O35         O  0.44685811  0.84152719  0.29531875    -0.73500
O36         O  0.47319452  0.92310311  0.25122994    -0.74300
O37         O  0.44222276  0.85141297  0.36108829    -0.73600
O38         O  0.46136661  0.88429907  0.22756674    -0.74100
O39         O  0.40423571  0.85992549  0.22926907    -0.74000
O40         O  0.37132334  0.88684033  0.24188189    -0.73800
C41         C  0.39880546  0.96356441  0.26337304     0.78000
C42         C  0.45815642  0.93492586  0.38161552     0.78500
C43         C  0.36777715  0.89283290  0.37358232     0.77400
C44         C  0.44937084  0.83575920  0.33290579     0.77800
C45         C  0.47596490  0.90420223  0.22641260     0.78900
C46         C  0.38118133  0.86775641  0.22244581     0.78000
Zn47       Zn  0.60884093  0.83729767  0.92377043     1.49700
Zn48       Zn  0.64847067  0.81511686  0.99068021     1.49400
Zn49       Zn  0.63472103  0.78157984  0.91104690     1.49100
Zn50       Zn  0.66888751  0.83387614  0.90440577     1.49500
O51         O  0.64022942  0.81681232  0.93249931    -1.83300
O52         O  0.59625278  0.85266663  0.97633445    -0.73900
O53         O  0.64558604  0.77860335  0.01125611    -0.73700
O54         O  0.59767565  0.77666614  0.89165801    -0.73200
O55         O  0.62311464  0.83654478  0.02330612    -0.73900
O56         O  0.57954246  0.81513726  0.90356561    -0.73500
O57         O  0.63853508  0.75469880  0.95560355    -0.74100
O58         O  0.68368907  0.81002024  0.86237055    -0.73500
O59         O  0.68479307  0.82772575  0.00250780    -0.74300
O60         O  0.66004707  0.77381908  0.86546878    -0.73600
O61         O  0.69784432  0.84320767  0.94279175    -0.74100
O62         O  0.65766734  0.86632318  0.87532264    -0.74000
O63         O  0.61475057  0.86649175  0.88454442    -0.73800
C64         C  0.60336040  0.85013411  0.01337278     0.78000
C65         C  0.64163318  0.75674038  0.99411968     0.78500
C66         C  0.57778618  0.79145463  0.89271848     0.77400
C67         C  0.67846247  0.78715842  0.84999357     0.77800
C68         C  0.70187450  0.83890027  0.98055781     0.78900
C69         C  0.63529610  0.87616367  0.86923603     0.78000
Zn70       Zn  0.81313825  0.66787353  0.58481135     1.49700
Zn71       Zn  0.83234378  0.68475232  0.49726617     1.49400
Zn72       Zn  0.84258424  0.72199961  0.57417603     1.49100
Zn73       Zn  0.87373449  0.66863198  0.56390623     1.49500
O74         O  0.84046506  0.68587957  0.55525734    -1.83300
O75         O  0.78350851  0.65801497  0.54771260    -0.73900
O76         O  0.83718522  0.72003370  0.47367612    -0.73700
O77         O  0.81551289  0.72992467  0.61690153    -0.73200
O78         O  0.79565577  0.67297369  0.48701403    -0.73900
O79         O  0.79749849  0.69113178  0.62713167    -0.73500
O80         O  0.83965172  0.74695546  0.52696292    -0.74100
O81         O  0.90031181  0.69323298  0.58701587    -0.73500
O82         O  0.85670754  0.66117846  0.46622875    -0.74300
O83         O  0.87794595  0.72967177  0.59752313    -0.73600
O84         O  0.88807653  0.65397517  0.51157063    -0.74100
O85         O  0.86950876  0.63807389  0.60073878    -0.74000
O86         O  0.82682216  0.63563489  0.61178501    -0.73800
C87         C  0.77896442  0.66207183  0.51000088     0.78000
C88         C  0.83967471  0.74274285  0.48859853     0.78500
C89         C  0.79939233  0.71524683  0.63526708     0.77400
C90         C  0.89912702  0.71683777  0.59863263     0.77800
C91         C  0.87875134  0.65156603  0.47569744     0.78900
C92         C  0.84978671  0.62665874  0.61580729     0.78000
Zn93       Zn  0.07140761  0.13133018  0.81218130     1.49700
Zn94       Zn  0.05548502  0.08749897  0.74860870     1.49400
Zn95       Zn  0.07223890  0.07163530  0.83847109     1.49100
Zn96       Zn  0.01791503  0.10035953  0.82369035     1.49500
O97         O  0.05426023  0.09777785  0.80587300    -1.83300
O98         O  0.08538395  0.14427201  0.75824464    -0.73900
O99         O  0.07095136  0.05200514  0.74172345    -0.73700
O100        O  0.10378412  0.08662723  0.86604531    -0.73200
O101        O  0.07536526  0.11295576  0.71410603    -0.73900
O102        O  0.10147836  0.12883290  0.85121796    -0.73500
O103        O  0.08328096  0.04099697  0.80445402    -0.74100
O104        O  0.01017217  0.07570745  0.86969103    -0.73500
O105        O  0.01969152  0.08642044  0.72536280    -0.74300
O106        O  0.04862836  0.05728963  0.88134825    -0.73600
O107        O  0.99324105  0.09303860  0.77725713    -0.74100
O108        O  0.00944313  0.13668559  0.84215233    -0.74000
O109        O  0.04641526  0.15828305  0.83275853    -0.73800
C110        C  0.08552462  0.13492417  0.72214625     0.78000
C111        C  0.08102112  0.03583780  0.76655700     0.78500
C112        C  0.11242657  0.10972192  0.86894007     0.77400
C113        C  0.02458428  0.06003402  0.88959234     0.77800
C114        C  0.99675628  0.08866984  0.73937225     0.78900
C115        C  0.02251983  0.15767639  0.84293456     0.78000
Zn116      Zn  0.92824347  0.89016861  0.13019577     1.49700
Zn117      Zn  0.88962181  0.90698943  0.20289537     1.49400
Zn118      Zn  0.93917144  0.87241732  0.22093002     1.49100
Zn119      Zn  0.94704012  0.93099105  0.19879263     1.49500
O120        O  0.92590220  0.90032265  0.18784669    -1.83300
O121        O  0.89228490  0.88605946  0.10652234    -0.73900
O122        O  0.87852470  0.88478065  0.25076557    -0.73700
O123        O  0.94580744  0.84101374  0.18734230    -0.73200
O124        O  0.86557227  0.89896868  0.15618775    -0.73900
O125        O  0.94491978  0.85463308  0.12289113    -0.73500
O126        O  0.91461008  0.86262505  0.26473579    -0.74100
O127        O  0.97890349  0.92322770  0.23363080    -0.73500
O128        O  0.88467577  0.94396546  0.22093335    -0.74300
O129        O  0.97215409  0.88185963  0.24871446    -0.73600
O130        O  0.92549152  0.95806472  0.22749418    -0.74100
O131        O  0.95858552  0.94654826  0.14580276    -0.74000
O132        O  0.94675554  0.91806485  0.09788016    -0.73800
C133        C  0.86950106  0.89017891  0.12032905     0.78000
C134        C  0.89117019  0.86859896  0.27249199     0.78500
C135        C  0.94848626  0.83677802  0.14929503     0.77400
C136        C  0.98576022  0.90236709  0.25161432     0.77800
C137        C  0.90105380  0.96112738  0.23208183     0.78900
C138        C  0.95707332  0.93961032  0.10847102     0.78000
Zn139      Zn  0.11198984  0.80235429  0.51944478     1.49700
Zn140      Zn  0.17081104  0.79150798  0.54349824     1.49400
Zn141      Zn  0.14833987  0.85011565  0.53893980     1.49100
Zn142      Zn  0.13020335  0.81220442  0.61080231     1.49500
O143        O  0.14054216  0.81403208  0.55330816    -1.83300
O144        O  0.12329024  0.77392433  0.48212276    -0.73900
O145        O  0.19997369  0.81275387  0.52006047    -0.73700
O146        O  0.12532235  0.86350236  0.49333578    -0.73200
O147        O  0.16324041  0.76294429  0.50187697    -0.73900
O148        O  0.09802291  0.83061920  0.48397657    -0.73500
O149        O  0.18537369  0.85356704  0.52067048    -0.74100
O150        O  0.12923252  0.84790477  0.63608557    -0.73500
O151        O  0.18423623  0.77652146  0.59675119    -0.74300
O152        O  0.14252746  0.87377723  0.58681000    -0.73600
O153        O  0.15623193  0.79145562  0.64291456    -0.74100
O154        O  0.09463485  0.79587778  0.61771452    -0.74000
O155        O  0.08274276  0.78900918  0.55322328    -0.73800
C156        C  0.14350875  0.75982887  0.47866629     0.78000
C157        C  0.20315011  0.83692660  0.51357224     0.78500
C158        C  0.10561386  0.85350349  0.47570620     0.77400
C159        C  0.13473449  0.87058807  0.62334208     0.77800
C160        C  0.17673278  0.77879635  0.63374960     0.78900
C161        C  0.07828381  0.78764952  0.59138325     0.78000
Zn162      Zn  0.30856681  0.70811322  0.94511911     1.49700
Zn163      Zn  0.36771518  0.69961319  0.96950403     1.49400
Zn164      Zn  0.33193014  0.65106408  0.95429377     1.49100
Zn165      Zn  0.34927122  0.68739654  0.87877860     1.49500
O166        O  0.33930467  0.68654521  0.93671950    -1.83300
O167        O  0.31668821  0.74041587  0.97844555    -0.73900
O168        O  0.37996709  0.67389104  0.01150232    -0.73700
O169        O  0.29450663  0.64671483  0.97042367    -0.73200
O170        O  0.35715993  0.73214745  0.99847157    -0.73900
O171        O  0.28081786  0.68771095  0.97417376    -0.73500
O172        O  0.35338352  0.64045850  0.00314353    -0.74100
O173        O  0.35481924  0.65096536  0.85863833    -0.73500
O174        O  0.39804521  0.70819327  0.93417215    -0.74300
O175        O  0.34179177  0.62599022  0.91032638    -0.73600
O176        O  0.38396586  0.70555557  0.86994141    -0.74100
O177        O  0.32075401  0.70334809  0.84431540    -0.74000
O178        O  0.29287288  0.71801013  0.89099908    -0.73800
C179        C  0.33698257  0.74653602  0.99878495     0.78000
C180        C  0.37226748  0.65131534  0.02164322     0.78500
C181        C  0.27726045  0.66347903  0.97980728     0.77400
C182        C  0.35125312  0.62876922  0.87470251     0.77800
C183        C  0.40180247  0.71059842  0.89593509     0.78900
C184        C  0.29936026  0.71436928  0.85384695     0.78000
Zn185      Zn  0.11289092  0.33756422  0.43444163     1.49700
Zn186      Zn  0.17244352  0.33684102  0.40812655     1.49400
Zn187      Zn  0.15626809  0.32063258  0.49740486     1.49100
Zn188      Zn  0.14113187  0.28279312  0.42266751     1.49500
O189        O  0.14570952  0.31923528  0.44024849    -1.83300
O190        O  0.11597515  0.36664919  0.39451857    -0.73900
O191        O  0.20225292  0.34963986  0.44339694    -0.73700
O192        O  0.13308970  0.34381873  0.53110969    -0.73200
O193        O  0.15756586  0.36692799  0.37595726    -0.73900
O194        O  0.10039563  0.35192473  0.48834330    -0.73500
O195        O  0.19288515  0.33265510  0.50411291    -0.74100
O196        O  0.14302868  0.25876188  0.47208575    -0.73500
O197        O  0.18836403  0.31147691  0.36895990    -0.74300
O198        O  0.15271149  0.28574896  0.52279559    -0.73600
O199        O  0.16842431  0.27353050  0.37900422    -0.74100
O200        O  0.10417308  0.27625191  0.40189182    -0.74000
O201        O  0.08498976  0.31389318  0.41426502    -0.73800
C202        C  0.13460033  0.37623812  0.37390006     0.78000
C203        C  0.20818381  0.34481261  0.48043217     0.78500
C204        C  0.11071262  0.35330314  0.52369587     0.77400
C205        C  0.14650888  0.26323011  0.51010878     0.77800
C206        C  0.18561397  0.28739634  0.36100488     0.78900
C207        C  0.08368003  0.29029054  0.40298699     0.78000
Zn208      Zn  0.35138074  0.18755570  0.10926331     1.49700
Zn209      Zn  0.30888241  0.20766075  0.04484386     1.49400
Zn210      Zn  0.36821265  0.20165085  0.01855479     1.49100
Zn211      Zn  0.33533258  0.15101177  0.03270771     1.49500
O212        O  0.34072847  0.18689679  0.05159405    -1.83300
O213        O  0.32491017  0.20644620  0.14411373    -0.73900
O214        O  0.31425979  0.23839677  0.00605130    -0.73700
O215        O  0.39767084  0.21412376  0.05278325    -0.73200
O216        O  0.29520866  0.22010293  0.09972347    -0.73900
O217        O  0.38666102  0.20459119  0.11670475    -0.73500
O218        O  0.35509296  0.23133322  0.98630495    -0.74100
O219        O  0.35909891  0.14108064  0.98598434    -0.73500
O220        O  0.28106935  0.18520964  0.01981714    -0.74300
O221        O  0.38286033  0.17656319  0.97800592    -0.73600
O222        O  0.29865104  0.14598442  0.01243494    -0.74100
O223        O  0.34338455  0.12589403  0.07790726    -0.74000
O224        O  0.35480175  0.15103313  0.13059530    -0.73800
C225        C  0.30350216  0.21801532  0.13638146     0.78000
C226        C  0.33395443  0.24404770  0.98410456     0.78500
C227        C  0.40262200  0.21393553  0.09085847     0.77400
C228        C  0.37722409  0.15337718  0.96800666     0.77800
C229        C  0.27951883  0.16155813  0.00843753     0.78900
C230        C  0.35131145  0.12874051  0.11454734     0.78000
Zn231      Zn  0.57487969  0.56995286  0.33282623     1.49700
Zn232      Zn  0.52054486  0.59827495  0.31263723     1.49400
Zn233      Zn  0.57434107  0.62928529  0.30553607     1.49100
Zn234      Zn  0.56126576  0.58440955  0.24078654     1.49500
O235        O  0.55761676  0.59549609  0.29793689    -1.83300
O236        O  0.55004600  0.55645444  0.37458937    -0.73900
O237        O  0.51167880  0.63486616  0.33154666    -0.73700
O238        O  0.60365761  0.62726964  0.34606714    -0.73200
O239        O  0.51121004  0.57262298  0.35802208    -0.73900
O240        O  0.60588729  0.58529450  0.36217746    -0.73500
O241        O  0.54883295  0.65647741  0.32456464    -0.74100
O242        O  0.58148134  0.61071386  0.20775802    -0.73500
O243        O  0.49797094  0.59305530  0.26236799    -0.74300
O244        O  0.58938470  0.64214200  0.25254191    -0.73600
O245        O  0.52611843  0.58279541  0.21367562    -0.74100
O246        O  0.57845757  0.54909967  0.23613512    -0.74000
O247        O  0.58686477  0.53870858  0.30083736    -0.73800
C248        C  0.52562053  0.55822275  0.38044380     0.78000
C249        C  0.52469372  0.65592766  0.33327784     0.78500
C250        C  0.61434891  0.60847589  0.36494168     0.77400
C251        C  0.59067485  0.63305937  0.21635220     0.77800
C252        C  0.50294082  0.58770080  0.22508756     0.78900
C253        C  0.58705752  0.53326987  0.26287928     0.78000
Zn254      Zn  0.39692016  0.40989434  0.70865088     1.49700
Zn255      Zn  0.43287001  0.39301301  0.63189214     1.49400
Zn256      Zn  0.45441617  0.43282165  0.69935342     1.49100
Zn257      Zn  0.44480808  0.37309350  0.72111573     1.49500
O258        O  0.43228898  0.40239747  0.69002133    -1.83300
O259        O  0.37143293  0.40188134  0.66389312    -0.73900
O260        O  0.45015887  0.42106762  0.59857094    -0.73700
O261        O  0.43436555  0.46068352  0.72888545    -0.73200
O262        O  0.39605517  0.38908527  0.61161863    -0.73900
O263        O  0.39337354  0.44704595  0.72591765    -0.73500
O264        O  0.46535593  0.44869255  0.64546937    -0.74100
O265        O  0.47696909  0.38299933  0.75121356    -0.73500
O266        O  0.45076237  0.35834607  0.62151647    -0.74300
O267        O  0.48592745  0.42381427  0.73412015    -0.73600
O268        O  0.45375491  0.34310909  0.68493608    -0.74100
O269        O  0.41909966  0.36076697  0.76276325    -0.74000
O270        O  0.38651409  0.38851733  0.75807545    -0.73800
C271        C  0.37381358  0.39326698  0.62753471     0.78000
C272        C  0.46187009  0.44199976  0.60831189     0.78500
C273        C  0.41017288  0.46422655  0.73529084     0.77400
C274        C  0.49139841  0.40302612  0.75349495     0.77800
C275        C  0.45622443  0.34018131  0.64652439     0.78900
C276        C  0.39724193  0.36913574  0.77540461     0.78000
Zn277      Zn  0.81075068  0.20685970  0.44562890     1.49700
Zn278      Zn  0.86919475  0.19923143  0.47373153     1.49400
Zn279      Zn  0.83458114  0.14994110  0.45702690     1.49100
Zn280      Zn  0.85388786  0.18584884  0.38223441     1.49500
O281        O  0.84196037  0.18546549  0.43924427    -1.83300
O282        O  0.81721476  0.23859992  0.48136609    -0.73900
O283        O  0.88121966  0.17370430  0.51508838    -0.73700
O284        O  0.79731825  0.14560456  0.47251003    -0.73200
O285        O  0.85730769  0.23062411  0.50400066    -0.73900
O286        O  0.78202526  0.18612606  0.47170694    -0.73500
O287        O  0.85536139  0.13993362  0.50690444    -0.74100
O288        O  0.85586987  0.14909180  0.36084390    -0.73500
O289        O  0.90030676  0.20890397  0.44154545    -0.74300
O290        O  0.84288057  0.12442834  0.41272693    -0.73600
O291        O  0.89027018  0.20133948  0.37652667    -0.74100
O292        O  0.82830233  0.20545466  0.34670415    -0.74000
O293        O  0.79772041  0.21805248  0.39042412    -0.73800
C294        C  0.83674791  0.24436912  0.50366751     0.78000
C295        C  0.87370602  0.15129094  0.52600203     0.78500
C296        C  0.77927481  0.16199354  0.47896630     0.77400
C297        C  0.85118137  0.12687019  0.37630904     0.77800
C298        C  0.90633029  0.20880866  0.40390948     0.78900
C299        C  0.80653640  0.21644212  0.35410700     0.78000
Zn300      Zn  0.63426002  0.30684421  0.11266316     1.49700
Zn301      Zn  0.61559647  0.29898341  0.02146703     1.49400
Zn302      Zn  0.65183712  0.34652912  0.04194073     1.49100
Zn303      Zn  0.67470651  0.28891383  0.04245330     1.49500
O304        O  0.64425922  0.31031253  0.05499982    -1.83300
O305        O  0.60054964  0.28650096  0.11924181    -0.73900
O306        O  0.60121006  0.32749174  0.98733334    -0.73700
O307        O  0.64303583  0.36918615  0.08956756    -0.73200
O308        O  0.58709841  0.28400145  0.05479988    -0.73900
O309        O  0.62926938  0.34239106  0.13836189    -0.73500
O310        O  0.62966766  0.35958882  0.99496309    -0.74100
O311        O  0.70318651  0.31107519  0.01910518    -0.73500
O312        O  0.62675205  0.27139807  0.98292221    -0.74300
O313        O  0.68960996  0.35158773  0.02742352    -0.73600
O314        O  0.66705911  0.26044317  0.00063628    -0.74100
O315        O  0.68981740  0.27474315  0.09473891    -0.74000
O316        O  0.66291775  0.28886463  0.14355177    -0.73800
C317        C  0.58377615  0.27950847  0.09261989     0.78000
C318        C  0.60942473  0.35001412  0.97819665     0.78500
C319        C  0.63381569  0.36521067  0.12508235     0.77400
C320        C  0.70726142  0.33544266  0.01721434     0.77800
C321        C  0.64694999  0.25746525  0.97818079     0.78900
C322        C  0.68363821  0.27730463  0.13226530     0.78000
Zn323      Zn  0.07149096  0.63009117  0.17858546     1.49700
Zn324      Zn  0.01681887  0.60134437  0.16701171     1.49400
Zn325      Zn  0.07078610  0.57174908  0.14934616     1.49100
Zn326      Zn  0.05447107  0.58622162  0.24124721     1.49500
O327        O  0.05326951  0.59722480  0.18406930    -1.83300
O328        O  0.04731612  0.65802864  0.16137584    -0.73900
O329        O  0.00796090  0.57676558  0.12090580    -0.73700
O330        O  0.10157305  0.58700151  0.11954739    -0.73200
O331        O  0.00944711  0.63848859  0.14987636    -0.73900
O332        O  0.10031421  0.62853855  0.13800591    -0.73500
O333        O  0.04592987  0.55754719  0.10779613    -0.74100
O334        O  0.07016760  0.55053203  0.24577729    -0.73500
O335        O  0.99233074  0.59474678  0.21406054    -0.74300
O336        O  0.08334692  0.54137441  0.18242486    -0.73600
O337        O  0.01862074  0.58657327  0.26629731    -0.74100
O338        O  0.07611631  0.61059503  0.27559074    -0.74000
O339        O  0.08727711  0.64140229  0.23154276    -0.73800
C340        C  0.02346299  0.65890172  0.15115950     0.78000
C341        C  0.02178925  0.56076219  0.10053635     0.78500
C342        C  0.11051483  0.61003946  0.11785553     0.77400
C343        C  0.08121617  0.53555862  0.22004611     0.77800
C344        C  0.99584930  0.59039286  0.25198990     0.78900
C345        C  0.08751259  0.63189579  0.26737033     0.78000
Zn346      Zn  0.92926288  0.38911487  0.85632616     1.49700
Zn347      Zn  0.94538197  0.43237753  0.79128359     1.49400
Zn348      Zn  0.93914933  0.37412264  0.76411423     1.49100
Zn349      Zn  0.88927897  0.40682855  0.78603248     1.49500
O350        O  0.92570669  0.40065264  0.79975785    -1.83300
O351        O  0.94572840  0.41716439  0.89098163    -0.73900
O352        O  0.97794804  0.42663734  0.75739162    -0.73700
O353        O  0.94802274  0.34229293  0.79521290    -0.73200
O354        O  0.95485541  0.44806134  0.84557189    -0.73900
O355        O  0.94953963  0.35537513  0.85997664    -0.73500
O356        O  0.97227684  0.38558054  0.73796094    -0.74100
O357        O  0.87898663  0.38842856  0.73362024    -0.73500
O358        O  0.92310849  0.45852657  0.76277006    -0.74300
O359        O  0.91399088  0.36505330  0.71964769    -0.73600
O360        O  0.88292432  0.44463218  0.77474349    -0.74100
O361        O  0.86608006  0.39447944  0.83164270    -0.74000
O362        O  0.89388499  0.38206878  0.88017941    -0.73800
C363        C  0.95400417  0.43981814  0.88223498     0.78000
C364        C  0.98537227  0.40651824  0.73787703     0.78500
C365        C  0.95355773  0.33818607  0.83254501     0.77400
C366        C  0.89103446  0.37243317  0.71068660     0.77800
C367        C  0.89856223  0.46188431  0.76163138     0.78900
C368        C  0.87073989  0.38513354  0.86699157     0.78000
C369        C  0.97775083  0.51213725  0.04698445    -0.04600
C370        C  0.98928877  0.51099908  0.00792717     0.09500
C371        C  0.01051162  0.52726925  0.99851953    -0.02000
C372        C  0.02073233  0.54410065  0.02851608    -0.00300
C373        C  0.00958288  0.54487568  0.06799190    -0.03900
C374        C  0.98781252  0.52910395  0.07698159     0.03100
C375        C  0.97946165  0.49222536  0.97674531     0.10000
C376        C  0.02190721  0.52648427  0.95796536     0.35900
C377        C  0.97654590  0.52936594  0.11765691     0.39300
C378        C  0.95865779  0.49924150  0.95085026    -0.04200
C379        C  0.94999388  0.48183293  0.92044506     0.02900
C380        C  0.96233760  0.45743621  0.91555919    -0.03800
C381        C  0.98274763  0.45018962  0.94219330    -0.00100
C382        C  0.99131067  0.46759348  0.97271418    -0.02600
C383        C  0.94629667  0.52444894  0.95550212     0.36600
C384        C  0.99542025  0.42514900  0.93745816     0.40200
C385        C  0.92774109  0.48865164  0.89520222     0.39400
C386        C  0.01250724  0.46034743  0.99979341     0.36300
C387        C  0.95587688  0.49539582  0.05645492     0.37000
C388        C  0.04257049  0.56082076  0.01860496     0.40200
N389        N  0.90983125  0.49401914  0.87538793    -0.37800
N390        N  0.93648590  0.54457263  0.95932477    -0.39400
N391        N  0.00550155  0.40515778  0.93364246    -0.37200
N392        N  0.02942395  0.45465014  0.02144097    -0.39600
N393        N  0.03093660  0.52582368  0.92557658    -0.39300
N394        N  0.05999591  0.57415252  0.01077047    -0.37000
N395        N  0.96761474  0.52957430  0.15013213    -0.38000
N396        N  0.93843959  0.48200437  0.06394260    -0.39700
C397        C  0.82494750  0.38081065  0.95818486    -0.04600
C398        C  0.80471408  0.36552302  0.94172183     0.09500
C399        C  0.80676555  0.35555719  0.90165015    -0.02000
C400        C  0.82865691  0.36146670  0.87757445    -0.00300
C401        C  0.84856245  0.37759440  0.89337758    -0.03900
C402        C  0.84692480  0.38676497  0.93415028     0.03100
C403        C  0.78089794  0.35986252  0.96615176     0.10000
C404        C  0.78621325  0.33919705  0.88526394     0.35900
C405        C  0.86748237  0.40287094  0.95110612     0.39300
C406        C  0.75896238  0.37615297  0.96276797    -0.04200
C407        C  0.73509628  0.36882298  0.98060677     0.02900
C408        C  0.73306770  0.34497022  0.00224063    -0.03800
C409        C  0.75588434  0.32969150  0.00801631    -0.00100
C410        C  0.77958060  0.33710136  0.98978827    -0.02600
C411        C  0.76090758  0.40022659  0.93989721     0.36600
C412        C  0.75535678  0.30633721  0.03285603     0.40200
C413        C  0.71262592  0.38558910  0.97502629     0.39400
C414        C  0.80263135  0.32102206  0.99456755     0.36300
C415        C  0.82292976  0.39059718  0.99968835     0.37000
C416        C  0.83113786  0.35008420  0.83711100     0.40200
N417        N  0.69486435  0.39918312  0.97063965    -0.37800
N418        N  0.76255595  0.41943828  0.92173712    -0.39400
N419        N  0.75511021  0.28764093  0.05249026    -0.37200
N420        N  0.82104051  0.30824706  0.99837370    -0.39600
N421        N  0.76976678  0.32615211  0.87239820    -0.39300
N422        N  0.83318850  0.34081315  0.80499046    -0.37000
N423        N  0.88394346  0.41562314  0.96465637    -0.38000
N424        N  0.82128227  0.39839164  0.03281673    -0.39700
C425        C  0.83984024  0.34325145  0.63883512    -0.04600
C426        C  0.85601774  0.33137678  0.60947704     0.09500
C427        C  0.88287598  0.33694147  0.60916711    -0.02000
C428        C  0.89388088  0.35248536  0.64018283    -0.00300
C429        C  0.87828805  0.36150201  0.67315279    -0.03900
C430        C  0.85085120  0.35815918  0.67080406     0.03100
C431        C  0.84576128  0.31016403  0.58264072     0.10000
C432        C  0.89946535  0.32548269  0.57803196     0.35900
C433        C  0.83379963  0.36899334  0.70178923     0.39300
C434        C  0.84234025  0.31406747  0.54022961    -0.04200
C435        C  0.83758592  0.29262925  0.51423191     0.02900
C436        C  0.83604154  0.26735621  0.53075012    -0.03800
C437        C  0.83765281  0.26375529  0.57345455    -0.00100
C438        C  0.84253734  0.28508283  0.59932641    -0.02600
C439        C  0.84498379  0.33993762  0.52325975     0.36600
C440        C  0.83523471  0.23788246  0.59068065     0.40200
C441        C  0.83620513  0.29627654  0.47031030     0.39400
C442        C  0.84576491  0.28100448  0.64297065     0.36300
C443        C  0.81192007  0.33911274  0.63696517     0.37000
C444        C  0.92131417  0.35918253  0.63771714     0.40200
N445        N  0.83525167  0.29908438  0.43522463    -0.37800
N446        N  0.84718160  0.36057716  0.50969932    -0.39400
N447        N  0.83337842  0.21728277  0.60451567    -0.37200
N448        N  0.84836965  0.27786589  0.67778341    -0.39600
N449        N  0.91264051  0.31628873  0.55320983    -0.39300
N450        N  0.94315452  0.36455525  0.63558735    -0.37000
N451        N  0.82004091  0.37772236  0.72624659    -0.38000
N452        N  0.78965152  0.33581636  0.63537946    -0.39700
C453        C  0.71395572  0.23947207  0.21988296    -0.04600
C454        C  0.73781023  0.25280272  0.22472375     0.09500
C455        C  0.74365450  0.27414673  0.19938493    -0.02000
C456        C  0.72573216  0.28213906  0.16930506    -0.00300
C457        C  0.70216923  0.26843019  0.16379419    -0.03900
C458        C  0.69616881  0.24723640  0.18933158     0.03100
C459        C  0.75667784  0.24449005  0.25695330     0.10000
C460        C  0.76802975  0.28800097  0.20456893     0.35900
C461        C  0.67178138  0.23342619  0.18404488     0.39300
C462        C  0.77309305  0.22298341  0.25004215    -0.04200
C463        C  0.78969464  0.21396913  0.28137847     0.02900
C464        C  0.79055820  0.22700449  0.31969817    -0.03800
C465        C  0.77492541  0.24947733  0.32557526    -0.00100
C466        C  0.75784501  0.25791746  0.29450213    -0.02600
C467        C  0.77272784  0.21007776  0.21051665     0.36600
C468        C  0.77658804  0.26434628  0.36328049     0.40200
C469        C  0.80485997  0.19055264  0.27440136     0.39400
C470        C  0.74123461  0.28037262  0.30118318     0.36300
C471        C  0.70766434  0.21797545  0.24672107     0.37000
C472        C  0.73092354  0.30528081  0.14533433     0.40200
N473        N  0.81687042  0.17183999  0.26868057    -0.37800
N474        N  0.77243833  0.19993513  0.17889095    -0.39400
N475        N  0.77786167  0.27622882  0.39331714    -0.37200
N476        N  0.72799946  0.29830067  0.30638402    -0.39600
N477        N  0.78745143  0.29908787  0.20876842    -0.39300
N478        N  0.73482518  0.32390943  0.12653963    -0.37000
N479        N  0.65231169  0.22242058  0.17982444    -0.38000
N480        N  0.70270274  0.20086070  0.26824860    -0.39700
C481        C  0.59394979  0.38626195  0.87992566    -0.04600
C482        C  0.56651191  0.38619260  0.88083102     0.09500
C483        C  0.55332755  0.37677421  0.91558039    -0.02000
C484        C  0.56751511  0.36636238  0.94857554    -0.00300
C485        C  0.59499991  0.36489220  0.94668354    -0.03900
C486        C  0.60821552  0.37541412  0.91261288     0.03100
C487        C  0.55122735  0.39309419  0.84356669     0.10000
C488        C  0.52505743  0.37667114  0.91647864     0.35900
C489        C  0.63630248  0.37322826  0.90951487     0.39300
C490        C  0.54782341  0.37428754  0.81259953    -0.04200
C491        C  0.52979234  0.37863492  0.78091734     0.02900
C492        C  0.51461644  0.40162234  0.78051096    -0.03800
C493        C  0.51969156  0.42140431  0.80962885    -0.00100
C494        C  0.53807662  0.41710773  0.84105175    -0.02600
C495        C  0.56201029  0.34988772  0.81448682     0.36600
C496        C  0.50489550  0.44543962  0.80907883     0.40200
C497        C  0.52655638  0.35916601  0.74905750     0.39400
C498        C  0.54276885  0.43689398  0.87185599     0.36300
C499        C  0.60737303  0.39646196  0.84444135     0.37000
C500        C  0.55372837  0.35676195  0.98421998     0.40200
N501        N  0.52392983  0.34367123  0.72366296    -0.37800
N502        N  0.57335433  0.33045880  0.81608317    -0.39400
N503        N  0.49313394  0.46464986  0.80870469    -0.37200
N504        N  0.54659155  0.45263752  0.89647484    -0.39600
N505        N  0.50252066  0.37654410  0.91706407    -0.39300
N506        N  0.54274585  0.34904791  0.01258579    -0.37000
N507        N  0.65868389  0.37128948  0.90673051    -0.38000
N508        N  0.61801791  0.40457111  0.81604392    -0.39700
C509        C  0.60454808  0.42959036  0.15758748    -0.04600
C510        C  0.61702637  0.43389447  0.19545721     0.09500
C511        C  0.63430377  0.41505781  0.21127445    -0.02000
C512        C  0.63933189  0.39206230  0.18893503    -0.00300
C513        C  0.62731261  0.38810593  0.15052184    -0.03900
C514        C  0.60973569  0.40684175  0.13510092     0.03100
C515        C  0.61195362  0.45868334  0.21790035     0.10000
C516        C  0.64722273  0.41964126  0.25007792     0.35900
C517        C  0.59670035  0.40255662  0.09619823     0.39300
C518        C  0.59097503  0.46035463  0.24554196    -0.04200
C519        C  0.58335654  0.48471636  0.26138634     0.02900
C520        C  0.59673285  0.50748771  0.24956186    -0.03800
C521        C  0.61870123  0.50554892  0.22385989    -0.00100
C522        C  0.62627508  0.48118439  0.20800824    -0.02600
C523        C  0.57675361  0.43705672  0.25652498     0.36600
C524        C  0.63378612  0.52854161  0.21434338     0.40200
C525        C  0.56100850  0.48648544  0.28835857     0.39400
C526        C  0.64845829  0.47924054  0.18076751     0.36300
C527        C  0.58646255  0.44878004  0.14164600     0.37000
C528        C  0.65759784  0.37299151  0.20465419     0.40200
N529        N  0.54317491  0.48793286  0.30984462    -0.37800
N530        N  0.56549059  0.41840664  0.26524297    -0.39400
N531        N  0.64607938  0.54678318  0.20707833    -0.37200
N532        N  0.66616516  0.47759673  0.15906692    -0.39600
N533        N  0.65758004  0.42335032  0.28101136    -0.39300
N534        N  0.67218455  0.35775523  0.21710533    -0.37000
N535        N  0.58637132  0.39908162  0.06516837    -0.38000
N536        N  0.57205198  0.46412673  0.12905148    -0.39700
C537        C  0.50052803  0.46928920  0.51920826    -0.04600
C538        C  0.48684281  0.49257628  0.51125451     0.09500
C539        C  0.46508065  0.49925440  0.53539310    -0.02000
C540        C  0.45687039  0.48259275  0.56703814    -0.00300
C541        C  0.47080642  0.45951558  0.57538873    -0.03900
C542        C  0.49271859  0.45296339  0.55154463     0.03100
C543        C  0.49580733  0.51039772  0.47802955     0.10000
C544        C  0.45124303  0.52334795  0.52768587     0.35900
C545        C  0.50757083  0.42973888  0.56090833     0.39300
C546        C  0.48346175  0.51018337  0.43941837    -0.04200
C547        C  0.49266907  0.52630223  0.40765336     0.02900
C548        C  0.51416932  0.54292699  0.41451446    -0.03800
C549        C  0.52609294  0.54348713  0.45360748    -0.00100
C550        C  0.51699976  0.52721761  0.48511209    -0.02600
C551        C  0.46164940  0.49286845  0.43221079     0.36600
C552        C  0.54765883  0.56100126  0.46167603     0.40200
C553        C  0.48093279  0.52462558  0.36735678     0.39400
C554        C  0.52961711  0.52754290  0.52486343     0.36300
C555        C  0.52258918  0.46212602  0.49392528     0.37000
C556        C  0.43362763  0.48880088  0.59027842     0.40200
N557        N  0.47163516  0.52311415  0.33516679    -0.37800
N558        N  0.44422289  0.47905728  0.42661696    -0.39400
N559        N  0.56488312  0.57492540  0.46808337    -0.37200
N560        N  0.53971459  0.52767925  0.55654109    -0.39600
N561        N  0.44026257  0.54260540  0.52149158    -0.39300
N562        N  0.41496336  0.49361246  0.60859545    -0.37000
N563        N  0.51959481  0.41133551  0.56853625    -0.38000
N564        N  0.54014252  0.45641659  0.47364338    -0.39700
C565        C  0.51829970  0.26629600  0.14258211    -0.04600
C566        C  0.50842639  0.24689672  0.11626529     0.09500
C567        C  0.52474136  0.23561234  0.08644817    -0.02000
C568        C  0.55026647  0.24491007  0.08111587    -0.00300
C569        C  0.55943436  0.26606457  0.10488755    -0.03900
C570        C  0.54373955  0.27599108  0.13684925     0.03100
C571        C  0.48012402  0.24026340  0.11650738     0.10000
C572        C  0.51477899  0.21528698  0.05981553     0.35900
C573        C  0.55296677  0.29730081  0.16209335     0.39300
C574        C  0.46232916  0.25680642  0.09633784    -0.04200
C575        C  0.43635391  0.24891349  0.09051681     0.02900
C576        C  0.42809306  0.22428882  0.10445003    -0.03800
C577        C  0.44550437  0.20839346  0.12678309    -0.00100
C578        C  0.47147701  0.21645647  0.13291984    -0.02600
C579        C  0.47110938  0.28145518  0.07984000     0.36600
C580        C  0.43730131  0.18295165  0.14083166     0.40200
C581        C  0.41820246  0.26597173  0.06949098     0.39400
C582        C  0.48966886  0.19981632  0.15452907     0.36300
C583        C  0.50176781  0.27701766  0.17433914     0.37000
C584        C  0.56698343  0.23286279  0.05066628     0.40200
N585        N  0.40371124  0.27953874  0.05272605    -0.37800
N586        N  0.47817642  0.30109035  0.06671662    -0.39400
N587        N  0.43074160  0.16262602  0.15186416    -0.37200
N588        N  0.50423802  0.18653564  0.17167273    -0.39600
N589        N  0.50679033  0.19911218  0.03858498    -0.39300
N590        N  0.58031080  0.22327322  0.02641088    -0.37000
N591        N  0.56029893  0.31431634  0.18225130    -0.38000
N592        N  0.48848886  0.28553989  0.19960171    -0.39700
C593        C  0.34352615  0.27853216  0.88407135    -0.04600
C594        C  0.34709353  0.30432749  0.89762601     0.09500
C595        C  0.34151165  0.31097240  0.93861073    -0.02000
C596        C  0.33426342  0.29146143  0.96669898    -0.00300
C597        C  0.33299672  0.26530527  0.95384140    -0.03900
C598        C  0.33649482  0.25906397  0.91211571     0.03100
C599        C  0.35966964  0.32356026  0.86975681     0.10000
C600        C  0.34487686  0.33757397  0.95230777     0.35900
C601        C  0.33408275  0.23228081  0.89849152     0.39300
C602        C  0.34453853  0.33975600  0.84450130    -0.04200
C603        C  0.35666185  0.35606581  0.81547830     0.02900
C604        C  0.38419770  0.35551810  0.81048266    -0.03800
C605        C  0.39929138  0.34060569  0.83847423    -0.00100
C606        C  0.38702704  0.32456937  0.86751675    -0.02600
C607        C  0.31637668  0.33904956  0.84779989     0.36600
C608        C  0.42754182  0.34211947  0.83861973     0.40200
C609        C  0.34046766  0.37327805  0.79123991     0.39400
C610        C  0.40258432  0.30853022  0.89474600     0.36300
C611        C  0.34873281  0.27177560  0.84175533     0.37000
C612        C  0.32988683  0.29798343  0.00929100     0.40200
N613        N  0.32734298  0.38724273  0.77261816    -0.37800
N614        N  0.29391701  0.33837029  0.85044924    -0.39400
N615        N  0.45005340  0.34331785  0.83892061    -0.37200
N616        N  0.41490964  0.29568236  0.91643766    -0.39600
N617        N  0.34769447  0.35881201  0.96316972    -0.39300
N618        N  0.32634346  0.30318640  0.04328441    -0.37000
N619        N  0.33219272  0.21090220  0.88779125    -0.38000
N620        N  0.35301348  0.26640570  0.80803709    -0.39700
C621        C  0.97928310  0.21857797  0.41114009    -0.04600
C622        C  0.98308602  0.23927264  0.38360668     0.09500
C623        C  0.96222664  0.24785503  0.35886164    -0.02000
C624        C  0.93716511  0.23699377  0.36366346    -0.00300
C625        C  0.93303138  0.21728646  0.39297109    -0.03900
C626        C  0.95444655  0.20739294  0.41543988     0.03100
C627        C  0.00831129  0.25377313  0.38425924     0.10000
C628        C  0.96643193  0.26861363  0.32970002     0.35900
C629        C  0.95087859  0.18582231  0.44348190     0.39300
C630        C  0.03043988  0.24380539  0.36427388    -0.04200
C631        C  0.05487091  0.25613463  0.36886123     0.02900
C632        C  0.05740503  0.27871309  0.39372172    -0.03800
C633        C  0.03454588  0.28921737  0.41225811    -0.00100
C634        C  0.01033341  0.27665989  0.40767347    -0.02600
C635        C  0.02803261  0.22045060  0.33960091     0.36600
C636        C  0.03554240  0.31241994  0.43762233     0.40200
C637        C  0.07717947  0.24534405  0.34767240     0.39400
C638        C  0.98746278  0.28675380  0.42851344     0.36300
C639        C  0.00070412  0.20963868  0.43653033     0.37000
C640        C  0.91541353  0.24730010  0.34042687     0.40200
N641        N  0.09480284  0.23639864  0.33069440    -0.37800
N642        N  0.02601773  0.20178454  0.32003552    -0.39400
N643        N  0.03604826  0.33099348  0.45766065    -0.37200
N644        N  0.96924117  0.29472831  0.44514837    -0.39600
N645        N  0.96986783  0.28519985  0.30647946    -0.39300
N646        N  0.89803932  0.25558043  0.32196883    -0.37000
N647        N  0.94796704  0.16864137  0.46580949    -0.38000
N648        N  0.01776951  0.20257516  0.45685591    -0.39700
C649        C  0.30631799  0.36834718  0.60043054    -0.04600
C650        C  0.30458347  0.37481414  0.55859655     0.09500
C651        C  0.32555399  0.38752402  0.53930044    -0.02000
C652        C  0.34791432  0.39433814  0.56200721    -0.00300
C653        C  0.34997580  0.38719699  0.60366166    -0.03900
C654        C  0.32927732  0.37360479  0.62243649     0.03100
C655        C  0.28081355  0.36747485  0.53485840     0.10000
C656        C  0.32422536  0.39324135  0.49592233     0.35900
C657        C  0.33219634  0.36331537  0.66348340     0.39300
C658        C  0.26266158  0.38667917  0.52289283    -0.04200
C659        C  0.23932603  0.37939730  0.50318997     0.02900
C660        C  0.23375991  0.35286951  0.49661079    -0.03800
C661        C  0.25208363  0.33371621  0.50794275    -0.00100
C662        C  0.27577983  0.34103666  0.52627412    -0.02600
C663        C  0.26764767  0.41382269  0.53207917     0.36600
C664        C  0.24643923  0.30641433  0.50097507     0.40200
C665        C  0.22055823  0.39908625  0.49127517     0.39400
C666        C  0.29487965  0.32133922  0.53689038     0.36300
C667        C  0.28446121  0.35607795  0.62081644     0.37000
C668        C  0.36849323  0.40915312  0.54262509     0.40200
N669        N  0.20559865  0.41479923  0.48172830    -0.37800
N670        N  0.27172595  0.43545963  0.53941362    -0.39400
N671        N  0.24184980  0.28465729  0.49552186    -0.37200
N672        N  0.31010750  0.30565656  0.54546421    -0.39600
N673        N  0.32313168  0.39773111  0.46129475    -0.39300
N674        N  0.38486800  0.42105906  0.52722502    -0.37000
N675        N  0.33465556  0.35460738  0.69585466    -0.38000
N676        N  0.26703387  0.34631944  0.63707624    -0.39700
C677        C  0.24734735  0.27021599  0.30213956    -0.04600
C678        C  0.23710829  0.25676515  0.26809137     0.09500
C679        C  0.21001125  0.25246264  0.26531794    -0.02000
C680        C  0.19316414  0.26195850  0.29603184    -0.00300
C681        C  0.20332526  0.27561161  0.33003770    -0.03900
C682        C  0.23057488  0.27959164  0.33299574     0.03100
C683        C  0.25486342  0.24733932  0.23481926     0.10000
C684        C  0.19947356  0.23849910  0.23044679     0.35900
C685        C  0.24148839  0.29325016  0.36793930     0.39300
C686        C  0.26966443  0.22453592  0.24034144    -0.04200
C687        C  0.28618811  0.21544243  0.20892269     0.02900
C688        C  0.28752535  0.22872884  0.17090929    -0.03800
C689        C  0.27287962  0.25192946  0.16588639    -0.00100
C690        C  0.25686707  0.26124420  0.19783364    -0.02600
C691        C  0.26758179  0.21021996  0.27840526     0.36600
C692        C  0.27472468  0.26680390  0.12834365     0.40200
C693        C  0.30143237  0.19212632  0.21602604     0.39400
C694        C  0.24253394  0.28536441  0.19289484     0.36300
C695        C  0.27519056  0.27465062  0.30511119     0.37000
C696        C  0.16526333  0.25899824  0.29128689     0.40200
N697        N  0.31382137  0.17374517  0.22223417    -0.37800
N698        N  0.26589003  0.19884121  0.30877880    -0.39400
N699        N  0.27610267  0.27868495  0.09840517    -0.37200
N700        N  0.23112150  0.30462562  0.18909965    -0.39600
N701        N  0.19113771  0.22739997  0.20252794    -0.39300
N702        N  0.14299539  0.25681375  0.28713452    -0.37000
N703        N  0.25023550  0.30422251  0.39567879    -0.38000
N704        N  0.29741156  0.27810765  0.30745801    -0.39700
C705        C  0.05811949  0.36133999  0.60374604    -0.04600
C706        C  0.06561793  0.38477630  0.62293649     0.09500
C707        C  0.08837453  0.39773462  0.61013314    -0.02000
C708        C  0.10328736  0.38757427  0.57751801    -0.00300
C709        C  0.09541695  0.36443365  0.55777037    -0.03900
C710        C  0.07303024  0.35113737  0.57141134     0.03100
C711        C  0.04876639  0.39581424  0.65586443     0.10000
C712        C  0.09635386  0.42143473  0.63063670     0.35900
C713        C  0.06587236  0.32638955  0.55315712     0.39300
C714        C  0.05064983  0.38617208  0.69612957    -0.04200
C715        C  0.03096911  0.39192026  0.72476569     0.02900
C716        C  0.00931503  0.40708329  0.71300411    -0.03800
C717        C  0.00879424  0.41883950  0.67408739    -0.00100
C718        C  0.02855123  0.41322371  0.64551954    -0.02600
C719        C  0.07213657  0.36929458  0.70732163     0.36600
C720        C  0.98703879  0.43530596  0.66257917     0.40200
C721        C  0.03257203  0.38174819  0.76603675     0.39400
C722        C  0.02731420  0.42408356  0.60467180     0.36300
C723        C  0.03498839  0.34770378  0.61741531     0.37000
C724        C  0.12641696  0.40110684  0.56379919     0.40200
N725        N  0.03387521  0.37377473  0.79905668    -0.37800
N726        N  0.08929095  0.35581170  0.71618509    -0.39400
N727        N  0.96965967  0.44844227  0.65350366    -0.37200
N728        N  0.02641966  0.43273744  0.57205624    -0.39600
N729        N  0.10268558  0.44031691  0.64717133    -0.39300
N730        N  0.14487278  0.41190619  0.55279836    -0.37000
N731        N  0.06036381  0.30652613  0.53889685    -0.38000
N732        N  0.01656778  0.33685750  0.62844543    -0.39700
C733        C  0.10715272  0.44065541  0.33691253    -0.04600
C734        C  0.11636316  0.44142283  0.29636800     0.09500
C735        C  0.13219868  0.42118444  0.28130625    -0.02000
C736        C  0.13864279  0.39997540  0.30673229    -0.00300
C737        C  0.12912374  0.39897950  0.34734564    -0.03900
C738        C  0.11348385  0.41957131  0.36235272     0.03100
C739        C  0.10944999  0.46410400  0.27024996     0.10000
C740        C  0.14163852  0.42218028  0.23956405     0.35900
C741        C  0.10439012  0.41953748  0.40439291     0.39300
C742        C  0.12548868  0.48633903  0.27059678    -0.04200
C743        C  0.11660384  0.50962119  0.25279172     0.02900
C744        C  0.09174566  0.51058789  0.23446149    -0.03800
C745        C  0.07638918  0.48794122  0.23183326    -0.00100
C746        C  0.08525486  0.46467056  0.24973207    -0.02600
C747        C  0.15068303  0.48542435  0.29067707     0.36600
C748        C  0.05106299  0.48891463  0.21210989     0.40200
C749        C  0.13268650  0.53277331  0.25427377     0.39400
C750        C  0.06913908  0.44155000  0.24844015     0.36300
C751        C  0.09120832  0.46179508  0.35248165     0.37000
C752        C  0.15431945  0.37885586  0.29054795     0.40200
N753        N  0.14549524  0.55125740  0.25546584    -0.37800
N754        N  0.17078327  0.48456893  0.30669213    -0.39400
N755        N  0.03086404  0.48979865  0.19639501    -0.37200
N756        N  0.05629978  0.42308469  0.24741562    -0.39600
N757        N  0.14915599  0.42300708  0.20624617    -0.39300
N758        N  0.16684834  0.36202836  0.27762048    -0.37000
N759        N  0.09710817  0.41949342  0.43787356    -0.38000
N760        N  0.07852535  0.47870737  0.36472256    -0.39700
C761        C  0.18044139  0.60892504  0.08092934    -0.04600
C762        C  0.18039155  0.62981731  0.05309436     0.09500
C763        C  0.15705283  0.64322098  0.04457259    -0.02000
C764        C  0.13391172  0.63628179  0.06485653    -0.00300
C765        C  0.13398151  0.61556405  0.09321823    -0.03900
C766        C  0.15722043  0.60157870  0.10059574     0.03100
C767        C  0.20523998  0.63842325  0.03398716     0.10000
C768        C  0.15706554  0.66444915  0.01542319     0.35900
C769        C  0.15757763  0.58048050  0.12999524     0.39300
C770        C  0.21442725  0.62617954  0.99820429    -0.04200
C771        C  0.23793750  0.63439442  0.98021851     0.02900
C772        C  0.25253629  0.65466562  0.99842926    -0.03800
C773        C  0.24352057  0.66646844  0.03485332    -0.00100
C774        C  0.21973403  0.65863292  0.05218996    -0.02600
C775        C  0.19957313  0.60515756  0.97996856     0.36600
C776        C  0.25938811  0.68565438  0.05584899     0.40200
C777        C  0.24673440  0.62235979  0.94251388     0.39400
C778        C  0.21018725  0.67121500  0.08900335     0.36300
C779        C  0.20464561  0.59565168  0.09041798     0.37000
C780        C  0.11002640  0.65041343  0.05639777     0.40200
N781        N  0.25373371  0.61275037  0.91243120    -0.37800
N782        N  0.18769579  0.58833731  0.96561753    -0.39400
N783        N  0.27219374  0.70067226  0.07292709    -0.37200
N784        N  0.20248999  0.68130397  0.11826083    -0.39600
N785        N  0.15719136  0.68137015  0.99215343    -0.39300
N786        N  0.09100716  0.66173647  0.04967090    -0.37000
N787        N  0.15778612  0.56364210  0.15341450    -0.38000
N788        N  0.22399990  0.58519125  0.09813563    -0.39700
C789        C  0.40937813  0.59852223  0.07933557    -0.04600
C790        C  0.41952379  0.61290229  0.11242975     0.09500
C791        C  0.41153266  0.63885889  0.11851103    -0.02000
C792        C  0.39492244  0.65101153  0.08999511    -0.00300
C793        C  0.38624325  0.63727872  0.05495752    -0.03900
C794        C  0.39262283  0.61055824  0.05077698     0.03100
C795        C  0.44059797  0.60182542  0.13879436     0.10000
C796        C  0.42109735  0.65329320  0.15363638     0.35900
C797        C  0.38290298  0.59553679  0.01639347     0.39300
C798        C  0.46668281  0.60384791  0.12603735    -0.04200
C799        C  0.48714070  0.59788431  0.15328835     0.02900
C800        C  0.48160301  0.58932620  0.19374890    -0.03800
C801        C  0.45522625  0.58508021  0.20489591    -0.00100
C802        C  0.43486753  0.59161803  0.17765317    -0.02600
C803        C  0.47242583  0.61320319  0.08513870     0.36600
C804        C  0.44880001  0.57401990  0.24436683     0.40200
C805        C  0.51371334  0.60228352  0.13985108     0.39400
C806        C  0.40791313  0.58854425  0.18987911     0.36300
C807        C  0.41689986  0.57153526  0.07406773     0.37000
C808        C  0.38658126  0.67761863  0.09709201     0.40200
N809        N  0.53482203  0.60587966  0.12886245    -0.37800
N810        N  0.47689580  0.62058263  0.05248538    -0.39400
N811        N  0.44353770  0.56519473  0.27580690    -0.37200
N812        N  0.38638125  0.58615600  0.19954958    -0.39600
N813        N  0.42871876  0.66471551  0.18173970    -0.39300
N814        N  0.37989330  0.69881088  0.10280518    -0.37000
N815        N  0.37501219  0.58337861  0.98924574    -0.38000
N816        N  0.42291497  0.55001097  0.06983900    -0.39700
C817        C  0.39062640  0.56952644  0.84604006    -0.04600
C818        C  0.37604878  0.55968310  0.81289337     0.09500
C819        C  0.35364379  0.57297437  0.79910740    -0.02000
C820        C  0.34560111  0.59595750  0.81888835    -0.00300
C821        C  0.35990107  0.60545843  0.85254493    -0.03900
C822        C  0.38266133  0.59251177  0.86566801     0.03100
C823        C  0.38447071  0.53525905  0.79240463     0.10000
C824        C  0.33889665  0.56287028  0.76472413     0.35900
C825        C  0.39831719  0.60331942  0.89857205     0.39300
C826        C  0.37358114  0.51134297  0.80429463    -0.04200
C827        C  0.38208131  0.48810110  0.78583360     0.02900
C828        C  0.40131015  0.48875698  0.75479850    -0.03800
C829        C  0.41218398  0.51290013  0.74303221    -0.00100
C830        C  0.40385055  0.53604013  0.76202115    -0.02600
C831        C  0.35388961  0.51070958  0.83606924     0.36600
C832        C  0.43159048  0.51418455  0.71090048     0.40200
C833        C  0.37179415  0.46348918  0.80024897     0.39400
C834        C  0.41530194  0.56075673  0.75058995     0.36300
C835        C  0.41377823  0.55592707  0.85992106     0.37000
C836        C  0.32258112  0.60971979  0.80494108     0.40200
N837        N  0.36363905  0.44388564  0.81186287    -0.37800
N838        N  0.33817424  0.51027168  0.86138439    -0.39400
N839        N  0.44715235  0.51537030  0.68541378    -0.37200
N840        N  0.42445759  0.58050023  0.74174239    -0.39600
N841        N  0.32715678  0.55471911  0.73731465    -0.39300
N842        N  0.30426413  0.62078524  0.79380251    -0.37000
N843        N  0.41090753  0.61206633  0.92455938    -0.38000
N844        N  0.43224643  0.54507254  0.87095176    -0.39700
C845        C  0.13061669  0.72748225  0.37662775    -0.04600
C846        C  0.13326762  0.70100643  0.38691833     0.09500
C847        C  0.14295717  0.69396954  0.42574428    -0.02000
C848        C  0.14787635  0.71328800  0.45546784    -0.00300
C849        C  0.14352967  0.73973479  0.44608827    -0.03900
C850        C  0.13612793  0.74680713  0.40591387     0.03100
C851        C  0.12300844  0.68072110  0.35845369     0.10000
C852        C  0.14665975  0.66672993  0.43556755     0.35900
C853        C  0.13384986  0.77404523  0.39482620     0.39300
C854        C  0.13733930  0.67317970  0.32364579    -0.04200
C855        C  0.12620341  0.65613052  0.29469546     0.02900
C856        C  0.10060223  0.64671659  0.30036342    -0.03800
C857        C  0.08669722  0.65346505  0.33610974    -0.00100
C858        C  0.09788359  0.67044673  0.36502937    -0.02600
C859        C  0.16325380  0.68353846  0.31716599     0.36600
C860        C  0.06026016  0.64425111  0.34202960     0.40200
C861        C  0.14111841  0.64816214  0.25913868     0.39400
C862        C  0.08310140  0.67831856  0.40078731     0.36300
C863        C  0.12088325  0.73476951  0.33654702     0.37000
C864        C  0.15552654  0.70570483  0.49638783     0.40200
N865        N  0.15295453  0.64170290  0.23077742    -0.37800
N866        N  0.18388280  0.69190092  0.31187879    -0.39400
N867        N  0.03917211  0.63692412  0.34665849    -0.37200
N868        N  0.07140187  0.68467331  0.42933941    -0.39600
N869        N  0.14955980  0.64497500  0.44330124    -0.39300
N870        N  0.16145674  0.69934689  0.52901385    -0.37000
N871        N  0.13212240  0.79576072  0.38601233    -0.38000
N872        N  0.11303162  0.74051187  0.30460913    -0.39700
C873        C  0.22128012  0.73303088  0.69359632    -0.04600
C874        C  0.22646862  0.74800063  0.72877573     0.09500
C875        C  0.21444341  0.77240899  0.73383919    -0.02000
C876        C  0.19755092  0.78210603  0.70344849    -0.00300
C877        C  0.19288466  0.76752445  0.66725772    -0.03900
C878        C  0.20473305  0.74279940  0.66275609     0.03100
C879        C  0.24535853  0.73847536  0.76008889     0.10000
C880        C  0.22002719  0.78780948  0.77005276     0.35900
C881        C  0.19982021  0.72713015  0.62669640     0.39300
C882        C  0.27195749  0.74486866  0.75670456    -0.04200
C883        C  0.28977435  0.73672252  0.78694615     0.02900
C884        C  0.28096724  0.72239808  0.82108856    -0.03800
C885        C  0.25431871  0.71547075  0.82380043    -0.00100
C886        C  0.23661709  0.72348172  0.79332228    -0.02600
C887        C  0.28087691  0.76003933  0.72210172     0.36600
C888        C  0.24519030  0.69927762  0.85714914     0.40200
C889        C  0.31702471  0.74364184  0.78321265     0.39400
C890        C  0.20938489  0.71618827  0.79589128     0.36300
C891        C  0.23321712  0.70760316  0.68912810     0.37000
C892        C  0.18597277  0.80764601  0.70896421     0.40200
N893        N  0.33876474  0.74911884  0.77990252    -0.37800
N894        N  0.28788152  0.77214941  0.69444707    -0.39400
N895        N  0.23794537  0.68631744  0.88368526    -0.37200
N896        N  0.18767341  0.71030892  0.79779749    -0.39600
N897        N  0.22460233  0.80008950  0.79887928    -0.39300
N898        N  0.17669775  0.82796767  0.71349620    -0.37000
N899        N  0.19620441  0.71445752  0.59798461    -0.38000
N900        N  0.24271720  0.68730380  0.68572775    -0.39700
C901        C  0.00555373  0.73006098  0.16326148    -0.04600
C902        C  0.98870985  0.73384855  0.12972462     0.09500
C903        C  0.98364748  0.71327366  0.10233979    -0.02000
C904        C  0.99518220  0.68869771  0.10882603    -0.00300
C905        C  0.01168987  0.68469817  0.14294141    -0.03900
C906        C  0.01687218  0.70558294  0.17008725     0.03100
C907        C  0.97506272  0.75926622  0.12576418     0.10000
C908        C  0.96641899  0.71743948  0.06779122     0.35900
C909        C  0.03290092  0.70174899  0.20627446     0.39300
C910        C  0.98747533  0.78030900  0.10634130    -0.04200
C911        C  0.97776328  0.80576218  0.11149178     0.02900
C912        C  0.95575007  0.81012842  0.13644987    -0.03800
C913        C  0.94220887  0.78868875  0.15318692    -0.00100
C914        C  0.95182860  0.76332538  0.14769016    -0.02600
C915        C  0.01118204  0.77586543  0.08331554     0.36600
C916        C  0.91884588  0.79273484  0.17737463     0.40200
C917        C  0.99170914  0.82751187  0.09393338     0.39400
C918        C  0.93879193  0.74147295  0.16678453     0.36300
C919        C  0.01072315  0.75135959  0.19138620     0.37000
C920        C  0.99049071  0.66777106  0.07995838     0.40200
N921        N  0.00297488  0.84480548  0.07997056    -0.37800
N922        N  0.03014099  0.77227797  0.06506368    -0.39400
N923        N  0.90033035  0.79593035  0.19689882    -0.37200
N924        N  0.92851558  0.72399620  0.18203428    -0.39600
N925        N  0.95266007  0.72081242  0.04022818    -0.39300
N926        N  0.98679331  0.65107172  0.05689407    -0.37000
N927        N  0.04565180  0.69873058  0.23511829    -0.38000
N928        N  0.01477155  0.76838583  0.21369831    -0.39700
C929        C  0.89110810  0.01380187  0.31159165    -0.04600
C930        C  0.87468304  0.03119312  0.29041927     0.09500
C931        C  0.86599731  0.02510827  0.25059855    -0.02000
C932        C  0.87441086  0.00201735  0.23145065    -0.00300
C933        C  0.89152451  0.98501417  0.25216653    -0.03900
C934        C  0.89955663  0.99077464  0.29249451     0.03100
C935        C  0.86758019  0.05647938  0.30971786     0.10000
C936        C  0.84867840  0.04280048  0.22926909     0.35900
C937        C  0.91600416  0.97267300  0.31473256     0.39300
C938        C  0.88575066  0.07699899  0.30986628    -0.04200
C939        C  0.88017204  0.10023155  0.33092058     0.02900
C940        C  0.85623384  0.10310864  0.35182051    -0.03800
C941        C  0.83778935  0.08267045  0.35081057    -0.00100
C942        C  0.84346425  0.05944248  0.32968306    -0.02600
C943        C  0.91050677  0.07386895  0.28906041     0.36600
C944        C  0.81290497  0.08547827  0.37132661     0.40200
C945        C  0.89976417  0.12052246  0.33293916     0.39400
C946        C  0.82470577  0.03837436  0.32894994     0.36300
C947        C  0.89929459  0.01969459  0.35309070     0.37000
C948        C  0.86623072  0.99626500  0.18994344     0.40200
N949        N  0.91540980  0.13666938  0.33468153    -0.37800
N950        N  0.93025354  0.07125069  0.27254962    -0.39400
N951        N  0.79308620  0.08759409  0.38780424    -0.37200
N952        N  0.80974415  0.02157015  0.32819763    -0.39600
N953        N  0.83476591  0.05689313  0.21239056    -0.39300
N954        N  0.85973152  0.99180333  0.15676329    -0.37000
N955        N  0.92901895  0.95816466  0.33247749    -0.38000
N956        N  0.90578563  0.02445068  0.38618387    -0.39700
C957        C  0.08984125  0.88921054  0.37708892    -0.04600
C958        C  0.06239805  0.88877627  0.37796063     0.09500
C959        C  0.04933428  0.87980971  0.41311002    -0.02000
C960        C  0.06362405  0.86968600  0.44621724    -0.00300
C961        C  0.09109589  0.86834502  0.44424546    -0.03900
C962        C  0.10422894  0.87901376  0.41020526     0.03100
C963        C  0.04695702  0.89471067  0.34041823     0.10000
C964        C  0.02107114  0.87997260  0.41436740     0.35900
C965        C  0.13242710  0.87799380  0.40798683     0.39300
C966        C  0.04275491  0.87486663  0.31138537    -0.04200
C967        C  0.02440904  0.87839081  0.27985900     0.02900
C968        C  0.00940890  0.90152294  0.27801387    -0.03800
C969        C  0.01518746  0.92218423  0.30531241    -0.00100
C970        C  0.03411177  0.91877595  0.33623003    -0.02600
C971        C  0.05629706  0.85020136  0.31542270     0.36600
C972        C  0.00055489  0.94629720  0.30369504     0.40200
C973        C  0.02068402  0.85787001  0.24981531     0.39400
C974        C  0.03958610  0.93955790  0.36501525     0.36300
C975        C  0.10314629  0.89919752  0.34135915     0.37000
C976        C  0.04999052  0.86041191  0.48220351     0.40200
N977        N  0.01769668  0.84148003  0.22595098    -0.37800
N978        N  0.06703584  0.83053158  0.31887528    -0.39400
N979        N  0.98893083  0.96557262  0.30251036    -0.37200
N980        N  0.04402163  0.95613197  0.38797399    -0.39600
N981        N  0.99853887  0.88013821  0.41520351    -0.39300
N982        N  0.03911777  0.85302803  0.51089059    -0.37000
N983        N  0.15492432  0.87713973  0.40625646    -0.38000
N984        N  0.11372184  0.90716709  0.31279668    -0.39700
C985        C  0.99273746  0.27583066  0.82469758    -0.04600
C986        C  0.98233263  0.26129945  0.85724777     0.09500
C987        C  0.96427511  0.27275705  0.88420850    -0.02000
C988        C  0.95562821  0.29844861  0.87746892    -0.00300
C989        C  0.96498263  0.31261891  0.84344751    -0.03900
C990        C  0.98406059  0.30133334  0.81763511     0.03100
C991        C  0.98934713  0.23330700  0.86071565     0.10000
C992        C  0.95405271  0.25775602  0.91804442     0.35900
C993        C  0.99461334  0.31566425  0.78321981     0.39300
C994        C  0.01103857  0.22571462  0.88425780    -0.05800
C995        C  0.02112208  0.20034390  0.88038997     0.02900
C996        C  0.00932466  0.18245459  0.85318719    -0.03800
C997        C  0.98633652  0.18958303  0.83201709    -0.00100
C998        C  0.97648069  0.21501758  0.83567856    -0.02600
C999        C  0.02361962  0.24444286  0.91096128     0.36600
C1000       C  0.97394495  0.17153848  0.80385611     0.40200
C1001       C  0.04393155  0.19284904  0.90380811     0.39400
C1002       C  0.95404537  0.22295828  0.81164082     0.36300
C1003       C  0.01192395  0.26414598  0.79769430     0.37000
C1004       C  0.93597407  0.30958279  0.90410465     0.40200
N1005       N  0.06217011  0.18697050  0.92247884    -0.37800
N1006       N  0.03356492  0.25944688  0.93227494    -0.39400
N1007       N  0.96406786  0.15722306  0.78131154    -0.37200
N1008       N  0.93627259  0.22938702  0.79231302    -0.39600
N1009       N  0.94593630  0.24574811  0.94504837    -0.39300
N1010       N  0.92027241  0.31846052  0.92532314    -0.37000
N1011       N  0.00290515  0.32676457  0.75539472    -0.38000
N1012       N  0.02717840  0.25477215  0.77620584    -0.39700
C1013       C  0.90148394  0.09887048  0.59689506    -0.04600
C1014       C  0.91605290  0.11411721  0.62437911     0.09500
C1015       C  0.91504549  0.14141335  0.62201758    -0.02000
C1016       C  0.90016480  0.15355255  0.59133341    -0.00300
C1017       C  0.88691063  0.13835140  0.56140313    -0.03900
C1018       C  0.88732971  0.11079278  0.56503101     0.03100
C1019       C  0.93450599  0.10167385  0.65362601     0.10000
C1020       C  0.93008602  0.15705324  0.65061252     0.35900
C1021       C  0.87438776  0.09432424  0.53519365     0.39300
C1022       C  0.95878263  0.09280307  0.63943892    -0.04200
C1023       C  0.97824069  0.08539625  0.66744247     0.02900
C1024       C  0.97403611  0.08834072  0.71028906    -0.03800
C1025       C  0.94836131  0.09417135  0.72403673    -0.00100
C1026       C  0.92879375  0.10092417  0.69564618    -0.02600
C1027       C  0.96422452  0.09267814  0.59583897     0.36600
C1028       C  0.94171649  0.09371308  0.76715634     0.40200
C1029       C  0.00251901  0.07512001  0.65136347     0.39400
C1030       C  0.90297834  0.10821437  0.70961517     0.36300
C1031       C  0.90167421  0.07078295  0.60099070     0.37000
C1032       C  0.89872512  0.18176668  0.59116630     0.40200
N1033       N  0.02179316  0.06691816  0.63827635    -0.37800
N1034       N  0.96852106  0.09265581  0.56110648    -0.39400
N1035       N  0.93623270  0.09336772  0.80147376    -0.37200
N1036       N  0.88239024  0.11408071  0.72066960    -0.39600
N1037       N  0.94210287  0.16945001  0.67340076    -0.39300
N1038       N  0.89777995  0.20425379  0.59114621    -0.37000
N1039       N  0.86416284  0.08105731  0.51147219    -0.38000
N1040       N  0.90184916  0.04839609  0.60441076    -0.39700
C1041       C  0.08220755  0.97216109  0.70747031    -0.04600
C1042       C  0.10716163  0.96261745  0.71740546     0.09500
C1043       C  0.12306472  0.97629571  0.74522760    -0.02000
C1044       C  0.11439518  0.00000801  0.76211320    -0.00300
C1045       C  0.08978958  0.01021005  0.75087781    -0.03900
C1046       C  0.07349577  0.99586282  0.72414383     0.03100
C1047       C  0.11714842  0.93884592  0.69647725     0.10000
C1048       C  0.14855732  0.96611509  0.75576755     0.35900
C1049       C  0.04747676  0.00511645  0.71444772     0.39300
C1050       C  0.13187498  0.94134526  0.66052698    -0.04200
C1051       C  0.13913087  0.91911117  0.63800032     0.02900
C1052       C  0.13100345  0.89388734  0.65079806    -0.03800
C1053       C  0.11797957  0.89160815  0.68916048    -0.00100
C1054       C  0.11099332  0.91404435  0.71151399    -0.02600
C1055       C  0.13910946  0.96708360  0.64632327     0.36600
C1056       C  0.11146051  0.86644751  0.70632331     0.40200
C1057       C  0.15522073  0.92274600  0.60198924     0.39400
C1058       C  0.09700258  0.91173584  0.74987972     0.36300
C1059       C  0.06563227  0.95765358  0.67960490     0.37000
C1060       C  0.13124378  0.01423577  0.78989177     0.40200
N1061       N  0.16808221  0.92588347  0.57338341    -0.37800
N1062       N  0.14482667  0.98763931  0.63520228    -0.39400
N1063       N  0.10633108  0.84646695  0.72037830    -0.37200
N1064       N  0.08586954  0.90991429  0.78048007    -0.39600
N1065       N  0.16890063  0.95794707  0.76404731    -0.39300
N1066       N  0.14470092  0.02546888  0.81217378    -0.37000
N1067       N  0.02673142  0.01249327  0.70677677    -0.38000
N1068       N  0.05243431  0.94602734  0.65743964    -0.39700
C1069       C  0.97989564  0.01379612  0.94678724    -0.04600
C1070       C  0.99386627  0.01038887  0.98353249     0.09500
C1071       C  0.01716675  0.02418155  0.99032722    -0.02000
C1072       C  0.02672527  0.04115986  0.96020383    -0.00300
C1073       C  0.01320481  0.04407191  0.92272713    -0.03900
C1074       C  0.98957254  0.03049463  0.91629324     0.03100
C1075       C  0.98413209  0.99209734  0.01525609     0.10000
C1076       C  0.03143208  0.02060880  0.02826066     0.35900
C1077       C  0.97575090  0.03271404  0.87767819     0.39300
C1078       C  0.99085613  0.96555315  0.01332953    -0.04200
C1079       C  0.98227079  0.94835293  0.04394656     0.02900
C1080       C  0.96675528  0.95764573  0.07656064    -0.03800
C1081       C  0.96007870  0.98438038  0.07831941    -0.00100
C1082       C  0.96875636  0.00149100  0.04769271    -0.02600
C1083       C  0.00681072  0.95606105  0.97988821     0.36600
C1084       C  0.94371297  0.99431713  0.11099628     0.40200
C1085       C  0.99031064  0.92133537  0.04258662     0.39400
C1086       C  0.96178971  0.02882753  0.04929771     0.36300
C1087       C  0.95573809  0.99977531  0.94025234     0.37000
C1088       C  0.05021964  0.05601345  0.96822585     0.40200
N1089       N  0.99687670  0.89982722  0.04138342    -0.37800
N1090       N  0.01951014  0.94855994  0.95313238    -0.39400
N1091       N  0.93073894  0.00228927  0.13709573    -0.37200
N1092       N  0.95627382  0.05063470  0.05044905    -0.39600
N1093       N  0.04278763  0.01766984  0.05850974    -0.39300
N1094       N  0.06892514  0.06789886  0.97460207    -0.37000
N1095       N  0.96474948  0.03444868  0.84686853    -0.38000
N1096       N  0.93647307  0.98856983  0.93510579    -0.39700
C1097       C  0.12201719  0.22970338  0.60674409    -0.04600
C1098       C  0.12679918  0.20337074  0.59771128     0.09500
C1099       C  0.13910306  0.19650197  0.56071827    -0.02000
C1100       C  0.14632758  0.21594840  0.53242748    -0.00300
C1101       C  0.14117337  0.24249485  0.54099236    -0.03900
C1102       C  0.12908322  0.24918451  0.57872727     0.03100
C1103       C  0.11775926  0.18303892  0.62703455     0.10000
C1104       C  0.14403010  0.16933204  0.55169298     0.35900
C1105       C  0.12262770  0.27599065  0.58854723     0.39300
C1106       C  0.09295923  0.17171306  0.62193303    -0.04200
C1107       C  0.08267383  0.15540847  0.65252447     0.02900
C1108       C  0.09719540  0.15035845  0.68850851    -0.03800
C1109       C  0.12238082  0.16110785  0.69293624    -0.00100
C1110       C  0.13261684  0.17737148  0.66224594    -0.02600
C1111       C  0.07759358  0.17780855  0.58589573     0.36600
C1112       C  0.13781989  0.15539779  0.72904792     0.40200
C1113       C  0.05647115  0.14520738  0.64798953     0.39400
C1114       C  0.15817654  0.18892144  0.66729980     0.36300
C1115       C  0.10903855  0.23668028  0.64467667     0.37000
C1116       C  0.15934979  0.20851766  0.49485107     0.40200
N1117       N  0.03553531  0.13718961  0.64439515    -0.37800
N1118       N  0.06539877  0.18276208  0.55713532    -0.39400
N1119       N  0.15007584  0.15083349  0.75790752    -0.37200
N1120       N  0.17853905  0.19821235  0.67130681    -0.39600
N1121       N  0.14788639  0.14762889  0.54452228    -0.39300
N1122       N  0.16971413  0.20254568  0.46485358    -0.37000
N1123       N  0.11751039  0.29728603  0.59677052    -0.38000
N1124       N  0.09866443  0.24217987  0.67488161    -0.39700
C1125       C  0.21790415  0.16003506  0.94346041    -0.04600
C1126       C  0.20784484  0.13532936  0.95296186     0.09500
C1127       C  0.22133800  0.11891121  0.98014995    -0.02000
C1128       C  0.24487352  0.12725991  0.99819139    -0.00300
C1129       C  0.25494553  0.15225215  0.98916505    -0.03900
C1130       C  0.24141906  0.16845517  0.96122019     0.03100
C1131       C  0.18315848  0.12656360  0.93334740     0.10000
C1132       C  0.21082942  0.09345821  0.98959721     0.35900
C1133       C  0.25210896  0.19342383  0.94922249     0.39300
C1134       C  0.18398017  0.11338437  0.89550613    -0.04200
C1135       C  0.16068455  0.10747644  0.87478110     0.02900
C1136       C  0.13653811  0.11442054  0.89215891    -0.03800
C1137       C  0.13564558  0.12679724  0.93065499    -0.00100
C1138       C  0.15898457  0.13299228  0.95116995    -0.02600
C1139       C  0.20885198  0.10648506  0.87752616     0.36600
C1140       C  0.11074316  0.13303850  0.94912577     0.40200
C1141       C  0.16154165  0.09525517  0.83475135     0.39400
C1142       C  0.15824803  0.14641579  0.99020480     0.36300
C1143       C  0.20401930  0.17672116  0.91503521     0.37000
C1144       C  0.25830646  0.11022543  0.02658946     0.40200
N1145       N  0.16212482  0.08568586  0.80269828    -0.37800
N1146       N  0.22870388  0.10094583  0.86323731    -0.39400
N1147       N  0.09088429  0.13787695  0.96400787    -0.37200
N1148       N  0.15774414  0.15717248  0.02131906    -0.39600
N1149       N  0.20236291  0.07318069  0.99706134    -0.39300
N1150       N  0.26902956  0.09653156  0.04908353    -0.37000
N1151       N  0.26063056  0.21330588  0.93958884    -0.38000
N1152       N  0.19287416  0.18996199  0.89238409    -0.39700
C1153       C  0.96623512  0.72890020  0.64364568    -0.04600
C1154       C  0.97413408  0.75062392  0.62056865     0.09500
C1155       C  0.95613069  0.76330153  0.59475364    -0.02000
C1156       C  0.93078764  0.75332193  0.59003005    -0.00300
C1157       C  0.92353485  0.73021466  0.61047860    -0.03900
C1158       C  0.94104867  0.71853020  0.63832209     0.03100
C1159       C  0.00216315  0.75815261  0.61891372     0.10000
C1160       C  0.96425774  0.78567860  0.57100065     0.35900
C1161       C  0.93327595  0.69563690  0.66103776     0.39300
C1162       C  0.01926834  0.74366328  0.59397874    -0.04200
C1163       C  0.04476050  0.75256487  0.58708609     0.02900
C1164       C  0.05321594  0.77624575  0.60464462    -0.03800
C1165       C  0.03656267  0.78998618  0.63151126    -0.00100
C1166       C  0.01106043  0.78088088  0.63866205    -0.02600
C1167       C  0.01020767  0.72013473  0.57391307     0.36600
C1168       C  0.04498225  0.81431101  0.64973418     0.40200
C1169       C  0.06223823  0.73740207  0.56153360     0.39400
C1170       C  0.99356848  0.79536684  0.66501479     0.36300
C1171       C  0.98445020  0.71668329  0.67159548     0.37000
C1172       C  0.91293573  0.76583132  0.56168877     0.40200
N1173       N  0.07617804  0.72534547  0.54115564    -0.37800
N1174       N  0.00290683  0.70139736  0.55796403    -0.39400
N1175       N  0.05165199  0.83374920  0.66422144    -0.37200
N1176       N  0.97954612  0.80693060  0.68593761    -0.39600
N1177       N  0.97079954  0.80346278  0.55200609    -0.39300
N1178       N  0.89874430  0.77585218  0.53911484    -0.37000
N1179       N  0.92705810  0.67735889  0.67912188    -0.38000
N1180       N  0.99904193  0.70697402  0.69386031    -0.39700
C1181       C  0.65829021  0.63242783  0.45039499    -0.04600
C1182       C  0.68305973  0.62819000  0.43302417     0.09500
C1183       C  0.68522068  0.61614804  0.39436556    -0.02000
C1184       C  0.66263529  0.60861885  0.37291573    -0.00300
C1185       C  0.63783709  0.61379898  0.38956266    -0.03900
C1186       C  0.63566442  0.62554602  0.42844022     0.03100
C1187       C  0.70695305  0.63726686  0.45473838     0.10000
C1188       C  0.71068924  0.61219650  0.37625060     0.35900
C1189       C  0.61016975  0.63064243  0.44571287     0.39300
C1190       C  0.72092928  0.62013126  0.48022800    -0.04200
C1191       C  0.74420432  0.62837824  0.49911253     0.02900
C1192       C  0.75368327  0.65381929  0.49228193    -0.03800
C1193       C  0.73911767  0.67122819  0.46780012    -0.00100
C1194       C  0.71583787  0.66292396  0.44905378    -0.02600
C1195       C  0.71141135  0.59392120  0.48661853     0.36600
C1196       C  0.74761980  0.69793948  0.46286879     0.40200
C1197       C  0.75875133  0.61036245  0.52452666     0.39400
C1198       C  0.70096741  0.68072453  0.42374005     0.36300
C1199       C  0.65620229  0.64412936  0.49065102     0.37000
C1200       C  0.66484004  0.59614098  0.33321498     0.40200
N1201       N  0.77033137  0.59605120  0.54491827    -0.37800
N1202       N  0.70378407  0.57301653  0.49169000    -0.39400
N1203       N  0.75435424  0.71926394  0.45907287    -0.37200
N1204       N  0.68901854  0.69487621  0.40360519    -0.39600
N1205       N  0.73101944  0.60919742  0.36176017    -0.39300
N1206       N  0.66650760  0.58611724  0.30159905    -0.37000
N1207       N  0.58985218  0.63473980  0.45957351    -0.38000
N1208       N  0.65465917  0.65340121  0.52283899    -0.39700
C1209       C  0.84969163  0.82190494  0.33289511    -0.04600
C1210       C  0.86139720  0.82392350  0.37184304     0.09500
C1211       C  0.88064837  0.84287684  0.37924190    -0.02000
C1212       C  0.88935311  0.85872109  0.34703633    -0.00300
C1213       C  0.87862101  0.85575603  0.30748954    -0.03900
C1214       C  0.85826175  0.83786628  0.30069523     0.03100
C1215       C  0.85597902  0.80382673  0.40334177     0.10000
C1216       C  0.89231528  0.84514114  0.41954787     0.35900
C1217       C  0.84758615  0.83446828  0.25990239     0.39300
C1218       C  0.87242483  0.78192668  0.40588188    -0.04200
C1219       C  0.86716873  0.76228420  0.43441469     0.02900
C1220       C  0.84521535  0.76427958  0.46024507    -0.03800
C1221       C  0.82915039  0.78653494  0.45853683    -0.00100
C1222       C  0.83451345  0.80629703  0.42991167    -0.02600
C1223       C  0.89468223  0.77953341  0.37879749     0.36600
C1224       C  0.80680984  0.78876425  0.48535577     0.40200
C1225       C  0.88482477  0.74029221  0.43796314     0.39400
C1226       C  0.81791411  0.82904999  0.42735522     0.36300
C1227       C  0.82991322  0.80233524  0.32548998     0.37000
C1228       C  0.90991386  0.87754138  0.35424762     0.40200
N1229       N  0.89886904  0.72278477  0.44100262    -0.37800
N1230       N  0.91241866  0.77762750  0.35720338    -0.39400
N1231       N  0.78897345  0.79057413  0.50676702    -0.37200
N1232       N  0.80471900  0.84724625  0.42512673    -0.39600
N1233       N  0.90162757  0.84685350  0.45170448    -0.39300
N1234       N  0.92635600  0.89249758  0.35994417    -0.37000
N1235       N  0.83921843  0.83171831  0.22728398    -0.38000
N1236       N  0.81418789  0.78665146  0.31969011    -0.39700
C1237       C  0.93609459  0.61679887  0.30701392    -0.04600
C1238       C  0.93786941  0.60361716  0.34462199     0.09500
C1239       C  0.95556832  0.58287035  0.34905210    -0.02000
C1240       C  0.97325046  0.57696873  0.31732469    -0.00300
C1241       C  0.97336113  0.59193760  0.28093007    -0.03900
C1242       C  0.95353799  0.61087677  0.27506606     0.03100
C1243       C  0.92316770  0.61375092  0.38071836     0.10000
C1244       C  0.95607547  0.56821191  0.38688592     0.35900
C1245       C  0.95178366  0.62556812  0.23729942     0.39300
C1246       C  0.89696114  0.60675976  0.38710892    -0.04200
C1247       C  0.88245188  0.61880800  0.41853115     0.02900
C1248       C  0.89422377  0.63776800  0.44398365    -0.03800
C1249       C  0.92080663  0.64402773  0.43834543    -0.00100
C1250       C  0.93513726  0.63213188  0.40671944    -0.02600
C1251       C  0.88493712  0.58735821  0.36099703     0.36600
C1252       C  0.93321032  0.66364455  0.46373150     0.40200
C1253       C  0.85551616  0.61140096  0.42497013     0.39400
C1254       C  0.96208705  0.63942311  0.39997567     0.36300
C1255       C  0.91716846  0.63756318  0.30213297     0.37000
C1256       C  0.99135902  0.55553354  0.32235995     0.40200
N1257       N  0.83401892  0.60553658  0.43012575    -0.37800
N1258       N  0.87538253  0.57183108  0.34017633    -0.39400
N1259       N  0.94312942  0.67927106  0.48395219    -0.37200
N1260       N  0.98355549  0.64524749  0.39448941    -0.39600
N1261       N  0.95638861  0.55651188  0.41707764    -0.39300
N1262       N  0.00576502  0.53840203  0.32640263    -0.37000
N1263       N  0.95018364  0.63726702  0.20719154    -0.38000
N1264       N  0.90209826  0.65414274  0.29843091    -0.39700
C1265       C  0.87279065  0.55834896  0.63958965    -0.04600
C1266       C  0.86359872  0.55525854  0.67986926     0.09500
C1267       C  0.84877945  0.57504999  0.69854385    -0.02000
C1268       C  0.84380378  0.59834812  0.67739785    -0.00300
C1269       C  0.85378431  0.60186560  0.63756310    -0.03900
C1270       C  0.86795678  0.58163249  0.61844764     0.03100
C1271       C  0.87107713  0.53174168  0.70349165     0.10000
C1272       C  0.83912111  0.57151608  0.73981409     0.35900
C1273       C  0.87723966  0.58456913  0.57676909     0.39300
C1274       C  0.89304133  0.53263918  0.72928679    -0.04200
C1275       C  0.90146242  0.51006582  0.74957824     0.02900
C1276       C  0.88811388  0.48624373  0.74360688    -0.03800
C1277       C  0.86562030  0.48564150  0.71833402    -0.00100
C1278       C  0.85707273  0.50843563  0.69863010    -0.02600
C1279       C  0.90729956  0.55680872  0.73420683     0.36600
C1280       C  0.85195026  0.46142400  0.71060989     0.40200
C1281       C  0.92387213  0.51161049  0.77662664     0.39400
C1282       C  0.83416248  0.50789338  0.67258169     0.36300
C1283       C  0.88750086  0.53762541  0.62016160     0.37000
C1284       C  0.82939464  0.61907154  0.69731365     0.40200
N1285       N  0.94183868  0.51297774  0.79795796    -0.37800
N1286       N  0.91862444  0.57610030  0.73802938    -0.39400
N1287       N  0.84103384  0.44214454  0.70433775    -0.37200
N1288       N  0.81589217  0.50750495  0.65180469    -0.39600
N1289       N  0.83149354  0.56860974  0.77276928    -0.39300
N1290       N  0.81792285  0.63562149  0.71319437    -0.37000
N1291       N  0.88463781  0.58693864  0.54356379    -0.38000
N1292       N  0.89914327  0.52104179  0.60467939    -0.39700
C1293       C  0.45615526  0.75194387  0.85179389    -0.04600
C1294       C  0.47787565  0.74089932  0.87174004     0.09500
C1295       C  0.47506275  0.71760772  0.89385439    -0.02000
C1296       C  0.45022757  0.70660058  0.89897489    -0.00300
C1297       C  0.42799977  0.71905447  0.88244803    -0.03900
C1298       C  0.43117536  0.74102451  0.85708203     0.03100
C1299       C  0.50291930  0.75547122  0.87438085     0.10000
C1300       C  0.49761975  0.70571062  0.91303662     0.35900
C1301       C  0.40870400  0.75340320  0.83859088     0.39300
C1302       C  0.50690281  0.77269242  0.90739287    -0.04200
C1303       C  0.53111934  0.78504646  0.91256630     0.02900
C1304       C  0.55160085  0.78033814  0.88448644    -0.03800
C1305       C  0.54733068  0.76348867  0.85087608    -0.00100
C1306       C  0.52305190  0.75098515  0.84599909    -0.02600
C1307       C  0.48626895  0.77687025  0.93703589     0.36600
C1308       C  0.56777992  0.75920076  0.82108525     0.40200
C1309       C  0.53527324  0.80138140  0.94830607     0.39400
C1310       C  0.51890431  0.73296680  0.81247159     0.36300
C1311       C  0.45945119  0.77522804  0.82744497     0.37000
C1312       C  0.44751125  0.68260741  0.92188132     0.40200
N1313       N  0.53855787  0.81434763  0.97683298    -0.37800
N1314       N  0.46982642  0.78005089  0.96069378    -0.39400
N1315       N  0.58408415  0.75582372  0.79725997    -0.37200
N1316       N  0.51554762  0.71848237  0.78585344    -0.39600
N1317       N  0.51562071  0.69628267  0.92838337    -0.39300
N1318       N  0.44535293  0.66348540  0.94013871    -0.37000
N1319       N  0.39086405  0.76340492  0.82370937    -0.38000
N1320       N  0.46218320  0.79378189  0.80797425    -0.39700
C1321       C  0.65260468  0.70910499  0.08082075    -0.04600
C1322       C  0.62832657  0.69634723  0.08164066     0.09500
C1323       C  0.61004166  0.70074787  0.05013958    -0.02000
C1324       C  0.61521544  0.71927144  0.01953774    -0.00300
C1325       C  0.63873958  0.73354011  0.02046766    -0.03900
C1326       C  0.65781899  0.72768899  0.05026710     0.03100
C1327       C  0.62076451  0.68027095  0.11769648     0.10000
C1328       C  0.58535031  0.68705376  0.05047002     0.35900
C1329       C  0.68272330  0.74096192  0.04960283     0.39300
C1330       C  0.60667049  0.69186377  0.14986644    -0.04200
C1331       C  0.59747370  0.67663026  0.18256029     0.02900
C1332       C  0.60212207  0.64940510  0.18318357    -0.03800
C1333       C  0.61673899  0.63799128  0.15099215    -0.00100
C1334       C  0.62626436  0.65347466  0.11870741    -0.02600
C1335       C  0.60111566  0.71954599  0.14869649     0.36600
C1336       C  0.62205928  0.61031678  0.15066134     0.40200
C1337       C  0.58207699  0.68904995  0.21430442     0.39400
C1338       C  0.64161697  0.64188140  0.08622870     0.36300
C1339       C  0.67179599  0.70371535  0.11227107     0.37000
C1340       C  0.59550470  0.72488585  0.98887726     0.40200
N1341       N  0.56984730  0.69904273  0.23956892    -0.37800
N1342       N  0.59666960  0.74159394  0.14757469    -0.39400
N1343       N  0.62619508  0.58821351  0.14976730    -0.37200
N1344       N  0.65401252  0.63272145  0.06040893    -0.39600
N1345       N  0.56565578  0.67614125  0.05089917    -0.39300
N1346       N  0.57977257  0.72937344  0.96447777    -0.37000
N1347       N  0.70261299  0.75151255  0.04889829    -0.38000
N1348       N  0.68710703  0.69934664  0.13735831    -0.39700
C1349       C  0.77445043  0.85245567  0.99421943    -0.04600
C1350       C  0.77520476  0.86178465  0.03474941     0.09500
C1351       C  0.75200545  0.86372234  0.05755699    -0.02000
C1352       C  0.72800784  0.85669413  0.03976396    -0.00300
C1353       C  0.72712726  0.84691046  0.99921393    -0.03900
C1354       C  0.75060936  0.84470793  0.97662265     0.03100
C1355       C  0.80053993  0.86925467  0.05387036     0.10000
C1356       C  0.75292888  0.87283086  0.09959318     0.35900
C1357       C  0.75060473  0.83362739  0.93573440     0.39300
C1358       C  0.80668068  0.89573436  0.05991619    -0.04200
C1359       C  0.82969386  0.90271246  0.08070807     0.02900
C1360       C  0.84679024  0.88325216  0.09492238    -0.03800
C1361       C  0.84125624  0.85681595  0.08723053    -0.00100
C1362       C  0.81800875  0.84981117  0.06717205    -0.02600
C1363       C  0.78910753  0.91574031  0.04516013     0.36600
C1364       C  0.85907414  0.83677366  0.10121518     0.40200
C1365       C  0.83597074  0.92989623  0.08702828     0.39400
C1366       C  0.81164219  0.82258158  0.06130942     0.36300
C1367       C  0.79834084  0.85072318  0.97070045     0.37000
C1368       C  0.70423395  0.86034825  0.06304961     0.40200
N1369       N  0.84099599  0.95161017  0.09180994    -0.37800
N1370       N  0.77501169  0.93166016  0.03347584    -0.39400
N1371       N  0.87334363  0.82082235  0.11225596    -0.37200
N1372       N  0.80652986  0.80087446  0.05659779    -0.39600
N1373       N  0.75375412  0.88011672  0.13308546    -0.39300
N1374       N  0.68531277  0.86331423  0.08167778    -0.37000
N1375       N  0.75065093  0.82477994  0.90314839    -0.38000
N1376       N  0.81741684  0.84928995  0.95203499    -0.39700
C1377       C  0.72288064  0.74119182  0.79157299    -0.04600
C1378       C  0.72853337  0.75615212  0.75663999     0.09500
C1379       C  0.71695310  0.78076076  0.75144085    -0.02000
C1380       C  0.70010783  0.79069455  0.78157256    -0.00300
C1381       C  0.69466149  0.77591260  0.81700301    -0.03900
C1382       C  0.70595795  0.75101529  0.82173831     0.03100
C1383       C  0.74686017  0.74600221  0.72521243     0.10000
C1384       C  0.72254261  0.79586892  0.71507003     0.35900
C1385       C  0.70119706  0.73597862  0.85847598     0.39300
C1386       C  0.73707983  0.73301888  0.69046700    -0.04200
C1387       C  0.75435171  0.72324557  0.66084882     0.02900
C1388       C  0.78150897  0.72645738  0.66590241    -0.03800
C1389       C  0.79127331  0.73988441  0.70037832    -0.00100
C1390       C  0.77392696  0.74956109  0.73009764    -0.02600
C1391       C  0.70920274  0.72981349  0.68523836     0.36600
C1392       C  0.81912522  0.74310942  0.70587789     0.40200
C1393       C  0.74412270  0.71052687  0.62452027     0.39400
C1394       C  0.78382050  0.76307776  0.76587920     0.36300
C1395       C  0.73480945  0.71581697  0.79660331     0.37000
C1396       C  0.68819176  0.81603056  0.77576897     0.40200
N1397       N  0.73607412  0.70043008  0.59546719    -0.37800
N1398       N  0.68695840  0.72733096  0.68105240    -0.39400
N1399       N  0.84134041  0.74571230  0.71031267    -0.37200
N1400       N  0.79159682  0.77383412  0.79452097    -0.39600
N1401       N  0.72699252  0.80783292  0.68598134    -0.39300
N1402       N  0.67880320  0.83628100  0.77114184    -0.37000
N1403       N  0.69742356  0.72402984  0.88782242    -0.38000
N1404       N  0.74439336  0.69560259  0.80056690    -0.39700
C1405       C  0.45801992  0.76660272  0.37296208    -0.04600
C1406       C  0.48122902  0.75915295  0.35307316     0.09500
C1407       C  0.49505709  0.77759651  0.32976793    -0.02000
C1408       C  0.48524533  0.80302750  0.32506826    -0.00300
C1409       C  0.46124733  0.81017070  0.34311953    -0.03900
C1410       C  0.44777380  0.79187508  0.36738956     0.03100
C1411       C  0.48998345  0.73133522  0.35305492     0.10000
C1412       C  0.51898917  0.77006838  0.30936767     0.35900
C1413       C  0.42225830  0.79809005  0.38350974     0.39300
C1414       C  0.47824949  0.71345260  0.32589539    -0.04200
C1415       C  0.48881009  0.68830264  0.32096065     0.02900
C1416       C  0.51126773  0.68082313  0.34322785    -0.03800
C1417       C  0.52212928  0.69830972  0.37203522    -0.00100
C1418       C  0.51143943  0.72343478  0.37702115    -0.02600
C1419       C  0.45591622  0.72139260  0.30165856     0.36600
C1420       C  0.54438332  0.69050668  0.39649396     0.40200
C1421       C  0.47755762  0.67083769  0.29080197     0.39400
C1422       C  0.52282189  0.74144544  0.40615577     0.36300
C1423       C  0.44434645  0.74793952  0.39820622     0.37000
C1424       C  0.49968032  0.82174882  0.30088904     0.40200
N1425       N  0.46863669  0.65694834  0.26666680    -0.37800
N1426       N  0.43808037  0.72778988  0.28244691    -0.39400
N1427       N  0.56214868  0.68432351  0.41603143    -0.37200
N1428       N  0.53187029  0.75585021  0.42939553    -0.39600
N1429       N  0.53806510  0.76398903  0.29313886    -0.39300
N1430       N  0.51109470  0.83667949  0.28150423    -0.37000
N1431       N  0.40162352  0.80251565  0.39584503    -0.38000
N1432       N  0.43351265  0.73304438  0.41845028    -0.39700
C1433       C  0.36306774  0.01346786  0.19761245    -0.04600
C1434       C  0.37747965  0.03615928  0.20597655     0.09500
C1435       C  0.39756921  0.03559731  0.23534836    -0.02000
C1436       C  0.40399428  0.01212412  0.25518146    -0.00300
C1437       C  0.39013946  0.98896672  0.24594753    -0.03900
C1438       C  0.36892997  0.99010288  0.21810042     0.03100
C1439       C  0.37134279  0.06069432  0.18363115     0.10000
C1440       C  0.41163633  0.05928151  0.24505238     0.35900
C1441       C  0.35305556  0.96736255  0.20992914     0.39300
C1442       C  0.34913237  0.07538127  0.19434719    -0.04200
C1443       C  0.34220628  0.09744663  0.17129427     0.02900
C1444       C  0.35801092  0.10540291  0.13843399    -0.03800
C1445       C  0.38060086  0.09111906  0.12834600    -0.00100
C1446       C  0.38710816  0.06863232  0.15063596    -0.02600
C1447       C  0.33342326  0.06766666  0.22907325     0.36600
C1448       C  0.39725894  0.09975136  0.09521416     0.40200
C1449       C  0.31819194  0.11117926  0.18011368     0.39400
C1450       C  0.40986348  0.05349446  0.13941409     0.36300
C1451       C  0.34250148  0.01410651  0.16707954     0.37000
C1452       C  0.42436358  0.01216866  0.28603875     0.40200
N1453       N  0.29877062  0.12176592  0.18686538    -0.37800
N1454       N  0.32099720  0.06147323  0.25687927    -0.39400
N1455       N  0.41050017  0.10676889  0.06885048    -0.37200
N1456       N  0.42803154  0.04143262  0.13048424    -0.39600
N1457       N  0.42281885  0.07820220  0.25269853    -0.39300
N1458       N  0.44059099  0.01225349  0.31066854    -0.37000
N1459       N  0.33994557  0.94948585  0.20380858    -0.38000
N1460       N  0.32616656  0.01469386  0.14265506    -0.39700
C1461       C  0.54186547  0.89859521  0.17563361    -0.04600
C1462       C  0.53424116  0.89464490  0.13457122     0.09500
C1463       C  0.50796421  0.89816500  0.12310744    -0.02000
C1464       C  0.48911378  0.90357119  0.15314688    -0.00300
C1465       C  0.49639288  0.90489757  0.19476483    -0.03900
C1466       C  0.52291057  0.90345695  0.20583234     0.03100
C1467       C  0.55324590  0.88388335  0.10445337     0.10000
C1468       C  0.50015591  0.89506743  0.08070163     0.35900
C1469       C  0.53050176  0.90526489  0.24848022     0.39300
C1470       C  0.56029114  0.85737821  0.10672185    -0.04200
C1471       C  0.57754438  0.84665319  0.07785830     0.02900
C1472       C  0.58730420  0.86221877  0.04579338    -0.03800
C1473       C  0.58009691  0.88871320  0.04335253    -0.00100
C1474       C  0.56339456  0.89959827  0.07300356    -0.02600
C1475       C  0.54900273  0.84089313  0.13800981     0.36600
C1476       C  0.58990803  0.90481071  0.01042423     0.40200
C1477       C  0.58412147  0.81921153  0.08000201     0.39400
C1478       C  0.55638508  0.92688447  0.07099702     0.36300
C1479       C  0.56912624  0.89656430  0.18687848     0.37000
C1480       C  0.46210051  0.90741690  0.14139877     0.40200
N1481       N  0.58938700  0.79735226  0.08166132    -0.37800
N1482       N  0.53992341  0.82777222  0.16289528    -0.39400
N1483       N  0.59762133  0.91760242  0.98401864    -0.37200
N1484       N  0.55070206  0.94863482  0.06937743    -0.39600
N1485       N  0.49396012  0.89268756  0.04684730    -0.39300
N1486       N  0.44058214  0.91067150  0.13209738    -0.37000
N1487       N  0.53658625  0.90660384  0.28251621    -0.38000
N1488       N  0.59090742  0.89492944  0.19567482    -0.39700
C1489       C  0.35246061  0.81228968  0.16165032    -0.04600
C1490       C  0.34704082  0.82462861  0.12407170     0.09500
C1491       C  0.34917657  0.85187837  0.12087847    -0.02000
C1492       C  0.35903893  0.86649220  0.15400807    -0.00300
C1493       C  0.36596681  0.85390084  0.19081406    -0.03900
C1494       C  0.36169797  0.82693280  0.19504979     0.03100
C1495       C  0.34257099  0.80840141  0.08681434     0.10000
C1496       C  0.34239490  0.86460188  0.08277287     0.35900
C1497       C  0.36772746  0.81410574  0.23344299     0.39300
C1498       C  0.31828626  0.79646492  0.07982868    -0.04200
C1499       C  0.31560083  0.77765212  0.04860199     0.02900
C1500       C  0.33746250  0.77041077  0.02469683    -0.03800
C1501       C  0.36101970  0.78447459  0.02917360    -0.00100
C1502       C  0.36362113  0.80315574  0.06041424    -0.02600
C1503       C  0.29639665  0.80284606  0.10597633     0.36600
C1504       C  0.38270479  0.77980617  0.00163119     0.40200
C1505       C  0.29056191  0.76525158  0.04239651     0.39400
C1506       C  0.38840019  0.81616450  0.06666107     0.36300
C1507       C  0.34987808  0.78429533  0.16521368     0.37000
C1508       C  0.36432479  0.89395324  0.14875963     0.40200
N1509       N  0.27041809  0.75570561  0.03727031    -0.37800
N1510       N  0.27899390  0.80791251  0.12698254    -0.39400
N1511       N  0.39997584  0.77613234  0.97965351    -0.37200
N1512       N  0.40812097  0.82656953  0.07172545    -0.39600
N1513       N  0.33692925  0.87469661  0.05234108    -0.39300
N1514       N  0.36885020  0.91576203  0.14396106    -0.37000
N1515       N  0.37257152  0.80393957  0.26407821    -0.38000
N1516       N  0.34782408  0.76196422  0.16795133    -0.39700
C1517       C  0.32303950  0.86044977  0.45127260    -0.04600
C1518       C  0.29958025  0.87380502  0.44397217     0.09500
C1519       C  0.29934321  0.89583618  0.41854337    -0.02000
C1520       C  0.32211786  0.90326536  0.39764177    -0.00300
C1521       C  0.34535346  0.88850448  0.40195281    -0.03900
C1522       C  0.34606266  0.86823882  0.43143338     0.03100
C1523       C  0.27488157  0.86419492  0.46228529     0.10000
C1524       C  0.27542455  0.91054116  0.41341627     0.35900
C1525       C  0.37026649  0.85540285  0.44219037     0.39300
C1526       C  0.26762166  0.87195288  0.50204965    -0.04200
C1527       C  0.24421677  0.86279483  0.51914377     0.02900
C1528       C  0.22805688  0.84591644  0.49639293    -0.03800
C1529       C  0.23544370  0.83800103  0.45671827    -0.00100
C1530       C  0.25885155  0.84712871  0.43970478    -0.02600
C1531       C  0.28428609  0.88934553  0.52521966     0.36600
C1532       C  0.21857788  0.82105666  0.43298637     0.40200
C1533       C  0.23706800  0.87016966  0.56048655     0.39400
C1534       C  0.26647709  0.83907472  0.39888690     0.36300
C1535       C  0.32322629  0.83809883  0.47831561     0.37000
C1536       C  0.32165749  0.92663720  0.37285029     0.40200
N1537       N  0.23138308  0.87593000  0.59352579    -0.37800
N1538       N  0.29764226  0.90321824  0.54362087    -0.39400
N1539       N  0.20504967  0.80759019  0.41413820    -0.37200
N1540       N  0.27260520  0.83269011  0.36633248    -0.39600
N1541       N  0.25630856  0.92222094  0.40947633    -0.39300
N1542       N  0.32124831  0.94536550  0.35329979    -0.37000
N1543       N  0.38959074  0.84555844  0.45185251    -0.38000
N1544       N  0.32329390  0.82019563  0.49968747    -0.39700
C1545       C  0.46098528  0.26727904  0.63468688    -0.04600
C1546       C  0.48630579  0.26453349  0.61860389     0.09500
C1547       C  0.50021288  0.28675409  0.60594291    -0.02000
C1548       C  0.48960172  0.31178278  0.61225575    -0.00300
C1549       C  0.46515016  0.31454087  0.63146563    -0.03900
C1550       C  0.45043255  0.29221251  0.64109435     0.03100
C1551       C  0.49959406  0.23875044  0.62151059     0.10000
C1552       C  0.52601527  0.28382358  0.58858092     0.35900
C1553       C  0.42464050  0.29495608  0.65870826     0.39300
C1554       C  0.49517016  0.21915359  0.59209806    -0.04200
C1555       C  0.50526586  0.19386143  0.59816565     0.02900
C1556       C  0.51984194  0.18809685  0.63381422    -0.03800
C1557       C  0.52465575  0.20812891  0.66280364    -0.00100
C1558       C  0.51476902  0.23330647  0.65640161    -0.02600
C1559       C  0.48007450  0.22509726  0.55578181     0.36600
C1560       C  0.53862760  0.20272507  0.70055925     0.40200
C1561       C  0.50095999  0.17400931  0.56738948     0.39400
C1562       C  0.51958238  0.25360031  0.68645277     0.36300
C1563       C  0.44644636  0.24442234  0.64693319     0.37000
C1564       C  0.50458191  0.33462652  0.60155407     0.40200
N1565       N  0.49748097  0.15826110  0.54265854    -0.37800
N1566       N  0.46805089  0.22993058  0.52679959    -0.39400
N1567       N  0.54974311  0.19845811  0.73064766    -0.37200
N1568       N  0.52344365  0.26983288  0.71026364    -0.39600
N1569       N  0.54663613  0.28144928  0.57483665    -0.39300
N1570       N  0.51663461  0.35280133  0.59299438    -0.37000
N1571       N  0.40408589  0.29722510  0.67274051    -0.38000
N1572       N  0.43493918  0.22613978  0.65671457    -0.39700
C1573       C  0.39324710  0.11745214  0.86899040    -0.04600
C1574       C  0.42037626  0.12122963  0.86676992     0.09500
C1575       C  0.43357003  0.13375737  0.89912354    -0.02000
C1576       C  0.41955843  0.14359501  0.93275144    -0.00300
C1577       C  0.39215203  0.14077779  0.93443249    -0.03900
C1578       C  0.37912817  0.12707287  0.90282023     0.03100
C1579       C  0.43529615  0.11308033  0.82972847     0.10000
C1580       C  0.46166479  0.13668235  0.89754063     0.35900
C1581       C  0.35108080  0.12381226  0.90403938     0.39300
C1582       C  0.44093687  0.13152630  0.79915980    -0.04200
C1583       C  0.45878253  0.12546860  0.76785390     0.02900
C1584       C  0.47117488  0.10088328  0.76713916    -0.03800
C1585       C  0.46412392  0.08186259  0.79623309    -0.00100
C1586       C  0.44608966  0.08792748  0.82732007    -0.02600
C1587       C  0.42934463  0.15723450  0.80125681     0.36600
C1588       C  0.47583252  0.05622236  0.79476171     0.40200
C1589       C  0.46594670  0.14534901  0.73848739     0.39400
C1590       C  0.43934921  0.06867194  0.85784256     0.36300
C1591       C  0.37987215  0.10411465  0.83597712     0.37000
C1592       C  0.43352064  0.15633562  0.96585288     0.40200
N1593       N  0.47173612  0.16121577  0.71517013    -0.37800
N1594       N  0.42013656  0.17775010  0.80306379    -0.39400
N1595       N  0.48510372  0.03571873  0.79382201    -0.37200
N1596       N  0.43385528  0.05334064  0.88218638    -0.39600
N1597       N  0.48406889  0.13893811  0.89626880    -0.39300
N1598       N  0.44466649  0.16653451  0.99216973    -0.37000
N1599       N  0.32870963  0.12116280  0.90506843    -0.38000
N1600       N  0.36925103  0.09344016  0.80960558    -0.39700
C1601       C  0.58386045  0.97242234  0.77592062    -0.04600
C1602       C  0.61105692  0.96867895  0.77886075     0.09500
C1603       C  0.62821609  0.98738502  0.76263297    -0.02000
C1604       C  0.61820288  0.01013163  0.74455054    -0.00300
C1605       C  0.59100765  0.01379863  0.74154010    -0.03900
C1606       C  0.57386928  0.99470815  0.75662942     0.03100
C1607       C  0.62132122  0.94507715  0.79978018     0.10000
C1608       C  0.65613162  0.98327421  0.76483666     0.35900
C1609       C  0.54596312  0.99761247  0.75119454     0.39300
C1610       C  0.61862098  0.92048818  0.78101460    -0.04200
C1611       C  0.62394177  0.89778339  0.80344730     0.02900
C1612       C  0.63289949  0.89970217  0.84410749    -0.03800
C1613       C  0.63771923  0.92427141  0.86171976    -0.00100
C1614       C  0.63155153  0.94698802  0.83979821    -0.02600
C1615       C  0.60970213  0.91864115  0.73897561     0.36600
C1616       C  0.64816365  0.92611581  0.90289880     0.40200
C1617       C  0.61967159  0.87244447  0.78507907     0.39400
C1618       C  0.63475695  0.97225716  0.85893887     0.36300
C1619       C  0.56614843  0.95343010  0.79320975     0.37000
C1620       C  0.63585456  0.03026997  0.73070930     0.40200
N1621       N  0.61619809  0.85222773  0.77047148    -0.37800
N1622       N  0.60258954  0.91726695  0.70543307    -0.39400
N1623       N  0.65661505  0.92755772  0.93566592    -0.37200
N1624       N  0.63737028  0.99243778  0.87410849    -0.39600
N1625       N  0.67840764  0.98001763  0.76666877    -0.39300
N1626       N  0.64989756  0.04645879  0.72002553    -0.37000
N1627       N  0.52372604  0.99976064  0.74647020    -0.38000
N1628       N  0.55208362  0.93823900  0.80698758    -0.39700
C1629       C  0.51173609  0.99514997  0.54176318    -0.04600
C1630       C  0.49789287  0.00423267  0.50743531     0.09500
C1631       C  0.49228581  0.03096499  0.50357431    -0.02000
C1632       C  0.50057889  0.04867000  0.53394955    -0.00300
C1633       C  0.51476379  0.03970765  0.56827860    -0.03900
C1634       C  0.52007835  0.01273162  0.57216665     0.03100
C1635       C  0.48840454  0.98544031  0.47588510     0.10000
C1636       C  0.47820653  0.04021734  0.46794467     0.35900
C1637       C  0.53365440  0.00280728  0.60791355     0.39300
C1638       C  0.46419745  0.97304768  0.48115736    -0.04200
C1639       C  0.45464905  0.95595371  0.45092463     0.02900
C1640       C  0.46933091  0.95115514  0.41501430    -0.03800
C1641       C  0.49388835  0.96325406  0.41027009    -0.00100
C1642       C  0.50342251  0.98022936  0.44075675    -0.02600
C1643       C  0.44895191  0.97829228  0.51759098     0.36600
C1644       C  0.50957230  0.95801587  0.37432085     0.40200
C1645       C  0.42910276  0.94436394  0.45611462     0.39400
C1646       C  0.52871173  0.99239299  0.43610269     0.36300
C1647       C  0.51745285  0.96762504  0.54561727     0.37000
C1648       C  0.49523736  0.07615981  0.52897947     0.40200
N1649       N  0.40872688  0.93515973  0.46032063    -0.37800
N1650       N  0.43689357  0.98254455  0.54672012    -0.39400
N1651       N  0.52208538  0.95390971  0.34561643    -0.37200
N1652       N  0.54891452  0.00205759  0.43248824    -0.39600
N1653       N  0.46705480  0.04752078  0.43939658    -0.39300
N1654       N  0.49088370  0.09807884  0.52491323    -0.37000
N1655       N  0.54451990  0.99488776  0.63633810    -0.38000
N1656       N  0.52201552  0.94567162  0.54860536    -0.39700
C1657       C  0.63048278  0.22557656  0.87716607    -0.04600
C1658       C  0.63399280  0.19911431  0.88677172     0.09500
C1659       C  0.64560098  0.19199231  0.92423256    -0.02000
C1660       C  0.65165969  0.21123279  0.95360072    -0.00300
C1661       C  0.64628233  0.23764231  0.94521505    -0.03900
C1662       C  0.63688993  0.24481582  0.90608908     0.03100
C1663       C  0.62305985  0.17892466  0.85884836     0.10000
C1664       C  0.65025847  0.16477058  0.93303378     0.35900
C1665       C  0.63345847  0.27205923  0.89572945     0.39300
C1666       C  0.63839835  0.16823586  0.82731948    -0.04200
C1667       C  0.62690973  0.15180259  0.79784807     0.02900
C1668       C  0.60008298  0.14583512  0.80013961    -0.03800
C1669       C  0.58511574  0.15533473  0.83316668    -0.00100
C1670       C  0.59654285  0.17206850  0.86220810    -0.02600
C1671       C  0.66581286  0.17471988  0.82470868     0.36600
C1672       C  0.55762048  0.14908459  0.83607835     0.40200
C1673       C  0.64267699  0.14097340  0.76518076     0.39400
C1674       C  0.58078053  0.18320566  0.89463665     0.36300
C1675       C  0.61913684  0.23289526  0.83813641     0.37000
C1676       C  0.66178167  0.20365687  0.99324635     0.40200
N1677       N  0.65517802  0.13226925  0.73909375    -0.37800
N1678       N  0.68770834  0.17985232  0.82269621    -0.39400
N1679       N  0.53571609  0.14402246  0.83834976    -0.37200
N1680       N  0.56825315  0.19225993  0.92039214    -0.39600
N1681       N  0.65400506  0.14301511  0.93982739    -0.39300
N1682       N  0.66984088  0.19757818  0.02489903    -0.37000
N1683       N  0.63076291  0.29377187  0.88749043    -0.38000
N1684       N  0.60996343  0.23866544  0.80708734    -0.39700
C1685       C  0.68034189  0.10206225  0.56748971    -0.04600
C1686       C  0.68262569  0.12659934  0.54881949     0.09500
C1687       C  0.66144473  0.14397990  0.54886284    -0.02000
C1688       C  0.63825776  0.13730752  0.56903012    -0.00300
C1689       C  0.63632069  0.11329832  0.58996959    -0.03900
C1690       C  0.65719621  0.09530765  0.58793626     0.03100
C1691       C  0.70785046  0.13486557  0.53087221     0.10000
C1692       C  0.66385384  0.16906804  0.52900109     0.35900
C1693       C  0.65547061  0.07028018  0.60811578     0.39300
C1694       C  0.71316597  0.13019054  0.48921966    -0.04200
C1695       C  0.73667196  0.13901918  0.47207977     0.02900
C1696       C  0.75467051  0.15273508  0.49656778    -0.03800
C1697       C  0.74944736  0.15717083  0.53832742    -0.00100
C1698       C  0.72602836  0.14824931  0.55547507    -0.02600
C1699       C  0.69425494  0.11662115  0.46405677     0.36600
C1700       C  0.76840355  0.17049421  0.56378290     0.40200
C1701       C  0.74216884  0.13441351  0.42917385     0.39400
C1702       C  0.72046479  0.15295672  0.59835979     0.36300
C1703       C  0.70219787  0.08415955  0.56671298     0.37000
C1704       C  0.61631712  0.15513757  0.56771770     0.40200
N1705       N  0.74653538  0.13077836  0.39492176    -0.37800
N1706       N  0.67908298  0.10584135  0.44406376    -0.39400
N1707       N  0.78356328  0.18102899  0.58411473    -0.37200
N1708       N  0.71594424  0.15669635  0.63253636    -0.39600
N1709       N  0.66587478  0.18908747  0.51325189    -0.39300
N1710       N  0.59882365  0.16933519  0.56668160    -0.37000
N1711       N  0.65416002  0.05020567  0.62388815    -0.38000
N1712       N  0.71967579  0.06993917  0.56611611    -0.39700
loop_ 
_geom_bond_atom_site_label_1 
_geom_bond_atom_site_label_2 
_geom_bond_distance 
_geom_bond_site_symmetry_2 
_ccdc_geom_bond_type 
Zn1           O5   1.944       .  S
Zn1           O6   2.011       .  S
Zn1          O10   1.984       .  S
Zn1          O17   2.005       .  S
Zn2           O5   1.932       .  S
Zn2           O7   1.982       .  S
Zn2           O9   1.984       .  S
Zn2          O13   1.994       .  S
Zn3           O5   1.969       .  S
Zn3           O8   2.050       .  S
Zn3          O11   2.048       .  S
Zn3          O14   2.031       .  S
Zn4           O5   1.951       .  S
Zn4          O12   1.997       .  S
Zn4          O15   2.014       .  S
Zn4          O16   2.000       .  S
O6           C18   1.271       .  A
O7           C19   1.270       .  A
O8           C20   1.279       .  A
O9           C18   1.269       .  A
O10          C20   1.271       .  A
O11          C19   1.277       .  A
O12          C21   1.271       .  A
O13          C22   1.270       .  A
O14          C21   1.275       .  A
O15          C22   1.272       .  A
O16          C23   1.272       .  A
O17          C23   1.272       .  A
C18        C1689   1.483       .  S
C19        C1556   1.491       .  S
C20        C1633   1.489       .  S
C21        C1584   1.483       .  S
C22        C1668   1.479       .  S
C23        C1605   1.473       .  S
Zn24         O28   1.965       .  S
Zn24         O29   2.018       .  S
Zn24         O33   2.012       .  S
Zn24         O40   2.033       .  S
Zn25         O28   1.958       .  S
Zn25         O30   2.012       .  S
Zn25         O32   2.008       .  S
Zn25         O36   2.026       .  S
Zn26         O28   1.963       .  S
Zn26         O31   2.011       .  S
Zn26         O34   2.019       .  S
Zn26         O37   2.051       .  S
Zn27         O28   1.932       .  S
Zn27         O35   1.997       .  S
Zn27         O38   1.991       .  S
Zn27         O39   1.986       .  S
O29          C41   1.274       .  A
O30          C42   1.274       .  A
O31          C43   1.273       .  A
O32          C41   1.273       .  A
O33          C43   1.274       .  A
O34          C42   1.275       .  A
O35          C44   1.271       .  A
O36          C45   1.273       .  A
O37          C44   1.277       .  A
O38          C45   1.270       .  A
O39          C46   1.269       .  A
O40          C46   1.273       .  A
C41        C1437   1.494       .  S
C42        C1640   1.488       .  S
C43        C1521   1.497       .  S
C44        C1409   1.488       .  S
C45        C1465   1.475       .  S
C46        C1493   1.477       .  S
Zn47         O51   1.945       .  S
Zn47         O52   1.998       .  S
Zn47         O56   1.999       .  S
Zn47         O63   2.001       .  S
Zn48         O51   1.950       .  S
Zn48         O53   2.002   1_556  S
Zn48         O55   2.011   1_556  S
Zn48         O59   2.012   1_556  S
Zn49         O51   1.963       .  S
Zn49         O54   2.020       .  S
Zn49         O57   2.020       .  S
Zn49         O60   2.019       .  S
Zn50         O51   1.947       .  S
Zn50         O58   1.992       .  S
Zn50         O61   2.002       .  S
Zn50         O62   2.006       .  S
O52          C64   1.271   1_556  A
O53          C65   1.272   1_554  A
O54          C66   1.273       .  A
O55          C64   1.273       .  A
O56          C66   1.271       .  A
O57          C65   1.273       .  A
O58          C67   1.272       .  A
O59          C68   1.273   1_554  A
O60          C67   1.275       .  A
O61          C68   1.271       .  A
O62          C69   1.270       .  A
O63          C69   1.271       .  A
C64        C1472   1.480       .  S
C65        C1325   1.481   1_556  S
C66        C1304   1.486       .  S
C67        C1381   1.480       .  S
C68        C1353   1.490       .  S
C69        C1612   1.470       .  S
Zn70         O74   1.942       .  S
Zn70         O75   2.009       .  S
Zn70         O79   1.996       .  S
Zn70         O86   2.006       .  S
Zn71         O74   1.941       .  S
Zn71         O76   1.990       .  S
Zn71         O78   2.007       .  S
Zn71         O82   2.015       .  S
Zn72         O74   1.960       .  S
Zn72         O77   2.013       .  S
Zn72         O80   2.015       .  S
Zn72         O83   2.008       .  S
Zn73         O74   1.944       .  S
Zn73         O81   2.008       .  S
Zn73         O84   2.009       .  S
Zn73         O85   1.995       .  S
O75          C87   1.272       .  A
O76          C88   1.271       .  A
O77          C89   1.273       .  A
O78          C87   1.273       .  A
O79          C89   1.272       .  A
O80          C88   1.272       .  A
O81          C90   1.273       .  A
O82          C91   1.273       .  A
O83          C90   1.272       .  A
O84          C91   1.272       .  A
O85          C92   1.272       .  A
O86          C92   1.272       .  A
C87        C1192   1.483       .  S
C88        C1220   1.474       .  S
C89        C1388   1.476       .  S
C90        C1157   1.481       .  S
C91        C1248   1.486       .  S
C92        C1269   1.476       .  S
Zn93         O97   1.949       .  S
Zn93         O98   2.020       .  S
Zn93        O102   2.005       .  S
Zn93        O109   2.004       .  S
Zn94         O97   1.945       .  S
Zn94         O99   2.003       .  S
Zn94        O101   2.011       .  S
Zn94        O105   1.988       .  S
Zn95         O97   1.948       .  S
Zn95        O100   2.006       .  S
Zn95        O103   2.009       .  S
Zn95        O106   1.998       .  S
Zn96         O97   1.960       .  S
Zn96        O104   2.010       .  S
Zn96        O107   2.011   1_455  S
Zn96        O108   2.010       .  S
O98         C110   1.273       .  A
O99         C111   1.272       .  A
O100        C112   1.272       .  A
O101        C110   1.272       .  A
O102        C112   1.272       .  A
O103        C111   1.272       .  A
O104        C113   1.273       .  A
O105        C114   1.269   1_455  A
O106        C113   1.272       .  A
O107        C114   1.272       .  A
O108        C115   1.272       .  A
O109        C115   1.272       .  A
C110       C1108   1.485       .  S
C111       C1045   1.483       .  S
C112       C1136   1.471       .  S
C113       C1073   1.482       .  S
C114       C1024   1.504       .  S
C115        C996   1.481       .  S
Zn116       O120   1.959       .  S
Zn116       O121   2.012       .  S
Zn116       O125   2.031       .  S
Zn116       O132   2.023       .  S
Zn117       O120   1.957       .  S
Zn117       O122   2.023       .  S
Zn117       O124   2.005       .  S
Zn117       O128   2.006       .  S
Zn118       O120   1.923       .  S
Zn118       O123   1.981       .  S
Zn118       O126   1.977       .  S
Zn118       O129   1.981       .  S
Zn119       O120   1.948       .  S
Zn119       O127   2.031       .  S
Zn119       O130   2.010       .  S
Zn119       O131   2.001       .  S
O121        C133   1.272       .  A
O122        C134   1.272       .  A
O123        C135   1.270       .  A
O124        C133   1.272       .  A
O125        C135   1.275       .  A
O126        C134   1.268       .  A
O127        C136   1.274       .  A
O128        C137   1.272       .  A
O129        C136   1.269       .  A
O130        C137   1.274       .  A
O131        C138   1.273       .  A
O132        C138   1.276       .  A
C133       C1360   1.474       .  S
C134       C1213   1.472       .  S
C135        C912   1.480       .  S
C136        C968   1.489   1_655  S
C137        C933   1.475       .  S
C138       C1080   1.484       .  S
Zn139       O143   1.931       .  S
Zn139       O144   1.989       .  S
Zn139       O148   1.994       .  S
Zn139       O155   1.990       .  S
Zn140       O143   1.964       .  S
Zn140       O145   2.009       .  S
Zn140       O147   2.038       .  S
Zn140       O151   2.025       .  S
Zn141       O143   1.958       .  S
Zn141       O146   2.022       .  S
Zn141       O149   2.002       .  S
Zn141       O152   2.003       .  S
Zn142       O143   1.957       .  S
Zn142       O150   2.013       .  S
Zn142       O153   2.006       .  S
Zn142       O154   2.024       .  S
O144        C156   1.271       .  A
O145        C157   1.273       .  A
O146        C158   1.272       .  A
O147        C156   1.275       .  A
O148        C158   1.270       .  A
O149        C157   1.272       .  A
O150        C159   1.272       .  A
O151        C160   1.275       .  A
O152        C159   1.271       .  A
O153        C160   1.273       .  A
O154        C161   1.273       .  A
O155        C161   1.271       .  A
C156        C849   1.483       .  S
C157       C1528   1.473       .  S
C158        C961   1.482       .  S
C159       C1052   1.508       .  S
C160        C877   1.491       .  S
C161       C1164   1.481       .  S
Zn162       O166   1.948       .  S
Zn162       O167   2.028       .  S
Zn162       O171   2.012       .  S
Zn162       O178   2.009       .  S
Zn163       O166   1.929       .  S
Zn163       O168   2.009   1_556  S
Zn163       O170   1.996       .  S
Zn163       O174   1.991       .  S
Zn164       O166   1.952       .  S
Zn164       O169   2.007       .  S
Zn164       O172   2.014   1_556  S
Zn164       O175   1.995       .  S
Zn165       O166   1.964       .  S
Zn165       O173   2.005       .  S
Zn165       O176   2.034       .  S
Zn165       O177   2.020       .  S
O167        C179   1.274       .  A
O168        C180   1.272       .  A
O169        C181   1.273       .  A
O170        C179   1.273       .  A
O171        C181   1.274       .  A
O172        C180   1.271       .  A
O173        C182   1.271       .  A
O174        C183   1.272       .  A
O175        C182   1.271       .  A
O176        C183   1.275       .  A
O177        C184   1.274       .  A
O178        C184   1.274       .  A
C179       C1500   1.491   1_556  S
C180        C793   1.491       .  S
C181        C772   1.481       .  S
C182        C821   1.468       .  S
C183       C1297   1.482       .  S
C184        C884   1.485       .  S
Zn185       O189   1.939       .  S
Zn185       O190   1.994       .  S
Zn185       O194   2.015       .  S
Zn185       O201   1.992       .  S
Zn186       O189   1.955       .  S
Zn186       O191   2.024       .  S
Zn186       O193   2.021       .  S
Zn186       O197   2.001       .  S
Zn187       O189   1.946       .  S
Zn187       O192   2.012       .  S
Zn187       O195   1.992       .  S
Zn187       O198   1.988       .  S
Zn188       O189   1.974       .  S
Zn188       O196   2.039       .  S
Zn188       O199   2.057       .  S
Zn188       O200   2.042       .  S
O190        C202   1.272       .  A
O191        C203   1.273       .  A
O192        C204   1.271       .  A
O193        C202   1.274       .  A
O194        C204   1.272       .  A
O195        C203   1.270       .  A
O196        C205   1.276       .  A
O197        C206   1.273       .  A
O198        C205   1.270       .  A
O199        C206   1.280       .  A
O200        C207   1.276       .  A
O201        C207   1.270       .  A
C202        C737   1.485       .  S
C203        C660   1.474       .  S
C204        C709   1.478       .  S
C205       C1101   1.496       .  S
C206        C681   1.490       .  S
C207        C632   1.505       .  S
Zn208       O212   1.962       .  S
Zn208       O213   2.022       .  S
Zn208       O217   2.027       .  S
Zn208       O224   2.013       .  S
Zn209       O212   1.964       .  S
Zn209       O214   2.048       .  S
Zn209       O216   2.030       .  S
Zn209       O220   2.009       .  S
Zn210       O212   1.936       .  S
Zn210       O215   1.986       .  S
Zn210       O218   1.974   1_554  S
Zn210       O221   1.996   1_554  S
Zn211       O212   1.965       .  S
Zn211       O219   2.021   1_554  S
Zn211       O222   2.012       .  S
Zn211       O223   2.007       .  S
O213        C225   1.274       .  A
O214        C226   1.275   1_554  A
O215        C227   1.270       .  A
O216        C225   1.276       .  A
O217        C227   1.274       .  A
O218        C226   1.269       .  A
O219        C228   1.272       .  A
O220        C229   1.274       .  A
O221        C228   1.270       .  A
O222        C229   1.274       .  A
O223        C230   1.273       .  A
O224        C230   1.273       .  A
C225        C688   1.500       .  S
C226        C597   1.477       .  S
C227        C576   1.480       .  S
C228       C1577   1.487       .  S
C229       C1129   1.488   1_554  S
C230       C1444   1.474       .  S
Zn231       O235   1.953       .  S
Zn231       O236   1.996       .  S
Zn231       O240   2.018       .  S
Zn231       O247   2.012       .  S
Zn232       O235   1.969       .  S
Zn232       O237   2.031       .  S
Zn232       O239   2.046       .  S
Zn232       O243   2.027       .  S
Zn233       O235   1.955       .  S
Zn233       O238   2.006       .  S
Zn233       O241   2.013       .  S
Zn233       O244   2.012       .  S
Zn234       O235   1.962       .  S
Zn234       O242   2.022       .  S
Zn234       O245   2.011       .  S
Zn234       O246   2.024       .  S
O236        C248   1.272       .  A
O237        C249   1.275       .  A
O238        C250   1.272       .  A
O239        C248   1.278       .  A
O240        C250   1.273       .  A
O241        C249   1.273       .  A
O242        C251   1.274       .  A
O243        C252   1.275       .  A
O244        C251   1.273       .  A
O245        C252   1.273       .  A
O246        C253   1.274       .  A
O247        C253   1.272       .  A
C248        C548   1.488       .  S
C249       C1416   1.489       .  S
C250       C1185   1.474       .  S
C251       C1332   1.495       .  S
C252        C800   1.501       .  S
C253        C520   1.481       .  S
Zn254       O258   1.954       .  S
Zn254       O259   2.004       .  S
Zn254       O263   2.000       .  S
Zn254       O270   2.029       .  S
Zn255       O258   1.960       .  S
Zn255       O260   2.018       .  S
Zn255       O262   2.012       .  S
Zn255       O266   2.033       .  S
Zn256       O258   1.958       .  S
Zn256       O261   2.010       .  S
Zn256       O264   2.024       .  S
Zn256       O267   2.029       .  S
Zn257       O258   1.929       .  S
Zn257       O265   1.987       .  S
Zn257       O268   1.995       .  S
Zn257       O269   2.003       .  S
O259        C271   1.274       .  A
O260        C272   1.273       .  A
O261        C273   1.273       .  A
O262        C271   1.274       .  A
O263        C273   1.272       .  A
O264        C272   1.274       .  A
O265        C274   1.272       .  A
O266        C275   1.274       .  A
O267        C274   1.275       .  A
O268        C275   1.271       .  A
O269        C276   1.271       .  A
O270        C276   1.272       .  A
C271        C653   1.484       .  S
C272        C541   1.479       .  S
C273        C828   1.484       .  S
C274        C492   1.484       .  S
C275       C1549   1.479       .  S
C276        C604   1.504       .  S
Zn277       O281   1.954       .  S
Zn277       O282   2.033       .  S
Zn277       O286   2.013       .  S
Zn277       O293   2.009       .  S
Zn278       O281   1.929       .  S
Zn278       O283   1.984       .  S
Zn278       O285   1.988       .  S
Zn278       O289   1.979       .  S
Zn279       O281   1.957       .  S
Zn279       O284   1.993       .  S
Zn279       O287   2.014       .  S
Zn279       O290   1.999       .  S
Zn280       O281   1.963       .  S
Zn280       O288   2.017       .  S
Zn280       O291   2.041       .  S
Zn280       O292   2.022       .  S
O282        C294   1.274       .  A
O283        C295   1.268       .  A
O284        C296   1.270       .  A
O285        C294   1.270       .  A
O286        C296   1.272       .  A
O287        C295   1.271       .  A
O288        C297   1.274       .  A
O289        C298   1.269       .  A
O290        C297   1.272       .  A
O291        C298   1.275       .  A
O292        C299   1.275       .  A
O293        C299   1.274       .  A
C294        C436   1.476       .  S
C295       C1017   1.497       .  S
C296       C1696   1.470       .  S
C297        C940   1.483       .  S
C298        C625   1.484       .  S
C299        C464   1.494       .  S
Zn300       O304   1.963       .  S
Zn300       O305   2.036       .  S
Zn300       O309   2.027       .  S
Zn300       O316   2.009       .  S
Zn301       O304   1.924       .  S
Zn301       O306   1.986   1_554  S
Zn301       O308   1.984       .  S
Zn301       O312   1.981   1_554  S
Zn302       O304   1.952       .  S
Zn302       O307   1.995       .  S
Zn302       O310   2.025   1_554  S
Zn302       O313   2.015       .  S
Zn303       O304   1.955       .  S
Zn303       O311   2.008       .  S
Zn303       O314   2.039       .  S
Zn303       O315   2.014       .  S
O305        C317   1.275       .  A
O306        C318   1.270       .  A
O307        C319   1.272       .  A
O308        C317   1.270       .  A
O309        C319   1.274       .  A
O310        C318   1.273       .  A
O311        C320   1.273       .  A
O312        C321   1.269       .  A
O313        C320   1.273       .  A
O314        C321   1.275   1_554  A
O315        C322   1.274       .  A
O316        C322   1.273       .  A
C317        C569   1.485       .  S
C318        C485   1.481       .  S
C319        C513   1.479       .  S
C320        C408   1.497       .  S
C321       C1661   1.482       .  S
C322        C457   1.474       .  S
Zn323       O327   1.942       .  S
Zn323       O328   1.980       .  S
Zn323       O332   1.991       .  S
Zn323       O339   1.996       .  S
Zn324       O327   1.963       .  S
Zn324       O329   2.017       .  S
Zn324       O331   2.027       .  S
Zn324       O335   2.018   1_455  S
Zn325       O327   1.952       .  S
Zn325       O330   2.019       .  S
Zn325       O333   2.000       .  S
Zn325       O336   2.007       .  S
Zn326       O327   1.955       .  S
Zn326       O334   2.010       .  S
Zn326       O337   2.016       .  S
Zn326       O338   2.015       .  S
O328        C340   1.270       .  A
O329        C341   1.274       .  A
O330        C342   1.273       .  A
O331        C340   1.274       .  A
O332        C342   1.269       .  A
O333        C341   1.272       .  A
O334        C343   1.273       .  A
O335        C344   1.273       .  A
O336        C343   1.271       .  A
O337        C344   1.274   1_455  A
O338        C345   1.272       .  A
O339        C345   1.270       .  A
C340        C905   1.482       .  S
C341        C373   1.479       .  S
C342        C765   1.479       .  S
C343        C744   1.471       .  S
C344       C1241   1.496       .  S
C345        C856   1.480       .  S
Zn346       O350   1.952       .  S
Zn346       O351   2.018       .  S
Zn346       O355   2.026       .  S
Zn346       O362   2.012       .  S
Zn347       O350   1.941       .  S
Zn347       O352   2.029       .  S
Zn347       O354   2.007       .  S
Zn347       O358   1.996       .  S
Zn348       O350   1.921       .  S
Zn348       O353   1.981       .  S
Zn348       O356   1.996       .  S
Zn348       O359   1.998       .  S
Zn349       O350   1.949       .  S
Zn349       O357   2.025       .  S
Zn349       O360   2.006       .  S
Zn349       O361   2.015       .  S
O351        C363   1.274       .  A
O352        C364   1.273       .  A
O353        C365   1.271       .  A
O354        C363   1.273       .  A
O355        C365   1.275       .  A
O356        C364   1.270       .  A
O357        C366   1.273       .  A
O358        C367   1.272       .  A
O359        C366   1.272       .  A
O360        C367   1.273       .  A
O361        C368   1.275       .  A
O362        C368   1.273       .  A
C363        C380   1.479       .  S
C364        C716   1.476   1_655  S
C365        C989   1.483       .  S
C366        C429   1.498       .  S
C367       C1276   1.485       .  S
C368        C401   1.482       .  S
C369        C370   1.410       .  A
C369        C374   1.409       .  A
C369        C387   1.450       .  S
C370        C375   1.490   1_554  S
C370        C371   1.410   1_654  A
C371        C372   1.408   1_556  A
C371        C376   1.451       .  S
C372        C373   1.413       .  A
C372        C388   1.452       .  S
C373        C374   1.414   1_455  A
C374        C377   1.451       .  S
C375        C378   1.409       .  A
C375        C382   1.411       .  A
C376        N393   1.157       .  T
C377        N395   1.157       .  T
C378        C379   1.408       .  A
C378        C383   1.451       .  S
C379        C380   1.414       .  A
C379        C385   1.451       .  S
C380        C381   1.411       .  A
C381        C382   1.409       .  A
C381        C384   1.451       .  S
C382        C386   1.450   1_655  S
C383        N390   1.157       .  T
C384        N391   1.157   1_655  T
C385        N389   1.157       .  T
C386        N392   1.157   1_556  T
C387        N396   1.157       .  T
C388        N394   1.157       .  T
C397        C398   1.409       .  A
C397        C402   1.411       .  A
C397        C415   1.450       .  S
C398        C403   1.491       .  S
C398        C399   1.410       .  A
C399        C400   1.407       .  A
C399        C404   1.451       .  S
C400        C401   1.413       .  A
C400        C416   1.451       .  S
C401        C402   1.416       .  A
C402        C405   1.451       .  S
C403        C406   1.407       .  A
C403        C410   1.406       .  A
C404        N421   1.157       .  T
C405        N423   1.157       .  T
C406        C407   1.410       .  A
C406        C411   1.452       .  S
C407        C408   1.422   1_556  A
C407        C413   1.451       .  S
C408        C409   1.422       .  A
C409        C410   1.409   1_554  A
C409        C412   1.452       .  S
C410        C414   1.451       .  S
C411        N418   1.157       .  T
C412        N419   1.158       .  T
C413        N417   1.157       .  T
C414        N420   1.157       .  T
C415        N424   1.157   1_556  T
C416        N422   1.157       .  T
C425        C426   1.408       .  A
C425        C430   1.413       .  A
C425        C443   1.451       .  S
C426        C431   1.494       .  S
C426        C427   1.409       .  A
C427        C428   1.408       .  A
C427        C432   1.452       .  S
C428        C429   1.421       .  A
C428        C444   1.453       .  S
C429        C430   1.421       .  A
C430        C433   1.450       .  S
C431        C434   1.412       .  A
C431        C438   1.412       .  A
C432        N449   1.157       .  T
C433        N451   1.158       .  T
C434        C435   1.412       .  A
C434        C439   1.450       .  S
C435        C436   1.411       .  A
C435        C441   1.450       .  S
C436        C437   1.411       .  A
C437        C438   1.406       .  A
C437        C440   1.452       .  S
C438        C442   1.452       .  S
C439        N446   1.157       .  T
C440        N447   1.157       .  T
C441        N445   1.157       .  T
C442        N448   1.157       .  T
C443        N452   1.157       .  T
C444        N450   1.158       .  T
C453        C454   1.413       .  A
C453        C458   1.410       .  A
C453        C471   1.450       .  S
C454        C459   1.493       .  S
C454        C455   1.410       .  A
C455        C456   1.407       .  A
C455        C460   1.450       .  S
C456        C457   1.412       .  A
C456        C472   1.452       .  S
C457        C458   1.409       .  A
C458        C461   1.450       .  S
C459        C462   1.408       .  A
C459        C466   1.408       .  A
C460        N477   1.157       .  T
C461        N479   1.157       .  T
C462        C463   1.410       .  A
C462        C467   1.452       .  S
C463        C464   1.420       .  A
C463        C469   1.451       .  S
C464        C465   1.419       .  A
C465        C466   1.410       .  A
C465        C468   1.452       .  S
C466        C470   1.451       .  S
C467        N474   1.157       .  T
C468        N475   1.157       .  T
C469        N473   1.158       .  T
C470        N476   1.157       .  T
C471        N480   1.157       .  T
C472        N478   1.157       .  T
C481        C482   1.409       .  A
C481        C486   1.410       .  A
C481        C499   1.450       .  S
C482        C487   1.491       .  S
C482        C483   1.411       .  A
C483        C484   1.407       .  A
C483        C488   1.452       .  S
C484        C485   1.415       .  A
C484        C500   1.452       .  S
C485        C486   1.414       .  A
C486        C489   1.450       .  S
C487        C490   1.410       .  A
C487        C494   1.410       .  A
C488        N505   1.157       .  T
C489        N507   1.157       .  T
C490        C491   1.406       .  A
C490        C495   1.452       .  S
C491        C492   1.415       .  A
C491        C497   1.453       .  S
C492        C493   1.416       .  A
C493        C494   1.411       .  A
C493        C496   1.450       .  S
C494        C498   1.450       .  S
C495        N502   1.157       .  T
C496        N503   1.158       .  T
C497        N501   1.157       .  T
C498        N504   1.157       .  T
C499        N508   1.157       .  T
C500        N506   1.157   1_556  T
C509        C510   1.410       .  A
C509        C514   1.406       .  A
C509        C527   1.451       .  S
C510        C515   1.493       .  S
C510        C511   1.411       .  A
C511        C512   1.413       .  A
C511        C516   1.449       .  S
C512        C513   1.413       .  A
C512        C528   1.451       .  S
C513        C514   1.413       .  A
C514        C517   1.453       .  S
C515        C518   1.410       .  A
C515        C522   1.411       .  A
C516        N533   1.157       .  T
C517        N535   1.157       .  T
C518        C519   1.410       .  A
C518        C523   1.450       .  S
C519        C520   1.414       .  A
C519        C525   1.451       .  S
C520        C521   1.411       .  A
C521        C522   1.410       .  A
C521        C524   1.449       .  S
C522        C526   1.450       .  S
C523        N530   1.157       .  T
C524        N531   1.157       .  T
C525        N529   1.157       .  T
C526        N532   1.157       .  T
C527        N536   1.157       .  T
C528        N534   1.157       .  T
C537        C538   1.412       .  A
C537        C542   1.411       .  A
C537        C555   1.450       .  S
C538        C543   1.497       .  S
C538        C539   1.411       .  A
C539        C540   1.410       .  A
C539        C544   1.450       .  S
C540        C541   1.412       .  A
C540        C556   1.451       .  S
C541        C542   1.410       .  A
C542        C545   1.449       .  S
C543        C546   1.411       .  A
C543        C550   1.410       .  A
C544        N561   1.157       .  T
C545        N563   1.157       .  T
C546        C547   1.413       .  A
C546        C551   1.450       .  S
C547        C548   1.415       .  A
C547        C553   1.450       .  S
C548        C549   1.416       .  A
C549        C550   1.409       .  A
C549        C552   1.452       .  S
C550        C554   1.451       .  S
C551        N558   1.157       .  T
C552        N559   1.157       .  T
C553        N557   1.157       .  T
C554        N560   1.157       .  T
C555        N564   1.157       .  T
C556        N562   1.157       .  T
C565        C566   1.410       .  A
C565        C570   1.412       .  A
C565        C583   1.450       .  S
C566        C571   1.493       .  S
C566        C567   1.410       .  A
C567        C568   1.407       .  A
C567        C572   1.452       .  S
C568        C569   1.416       .  A
C568        C584   1.453       .  S
C569        C570   1.415       .  A
C570        C573   1.450       .  S
C571        C574   1.411       .  A
C571        C578   1.411       .  A
C572        N589   1.157       .  T
C573        N591   1.157       .  T
C574        C575   1.407       .  A
C574        C579   1.452       .  S
C575        C576   1.413       .  A
C575        C581   1.452       .  S
C576        C577   1.414       .  A
C577        C578   1.411       .  A
C577        C580   1.451       .  S
C578        C582   1.450       .  S
C579        N586   1.157       .  T
C580        N587   1.157       .  T
C581        N585   1.158       .  T
C582        N588   1.157       .  T
C583        N592   1.157       .  T
C584        N590   1.158       .  T
C593        C594   1.410       .  A
C593        C598   1.407       .  A
C593        C611   1.451       .  S
C594        C599   1.495       .  S
C594        C595   1.412       .  A
C595        C596   1.413       .  A
C595        C600   1.449       .  S
C596        C597   1.410       .  A
C596        C612   1.450   1_556  S
C597        C598   1.413       .  A
C598        C601   1.452       .  S
C599        C602   1.407       .  A
C599        C606   1.408       .  A
C600        N617   1.157       .  T
C601        N619   1.157       .  T
C602        C603   1.414       .  A
C602        C607   1.451       .  S
C603        C604   1.424       .  A
C603        C609   1.450       .  S
C604        C605   1.423       .  A
C605        C606   1.409       .  A
C605        C608   1.453       .  S
C606        C610   1.453       .  S
C607        N614   1.157       .  T
C608        N615   1.158       .  T
C609        N613   1.158       .  T
C610        N616   1.157       .  T
C611        N620   1.157       .  T
C612        N618   1.157       .  T
C621        C622   1.410       .  A
C621        C626   1.407       .  A
C621        C639   1.452   1_655  S
C622        C627   1.496   1_655  S
C622        C623   1.412       .  A
C623        C624   1.413       .  A
C623        C628   1.450       .  S
C624        C625   1.413       .  A
C624        C640   1.450       .  S
C625        C626   1.416       .  A
C626        C629   1.453       .  S
C627        C630   1.407       .  A
C627        C634   1.407       .  A
C628        N645   1.157       .  T
C629        N647   1.158       .  T
C630        C631   1.414       .  A
C630        C635   1.451       .  S
C631        C632   1.422       .  A
C631        C637   1.449       .  S
C632        C633   1.427       .  A
C633        C634   1.409       .  A
C633        C636   1.453       .  S
C634        C638   1.454   1_455  S
C635        N642   1.157       .  T
C636        N643   1.158       .  T
C637        N641   1.157       .  T
C638        N644   1.157       .  T
C639        N648   1.157       .  T
C640        N646   1.157       .  T
C649        C650   1.411       .  A
C649        C654   1.406       .  A
C649        C667   1.452       .  S
C650        C655   1.494       .  S
C650        C651   1.411       .  A
C651        C652   1.410       .  A
C651        C656   1.450       .  S
C652        C653   1.415       .  A
C652        C668   1.451       .  S
C653        C654   1.415       .  A
C654        C657   1.451       .  S
C655        C658   1.413       .  A
C655        C662   1.412       .  A
C656        N673   1.157       .  T
C657        N675   1.157       .  T
C658        C659   1.410       .  A
C658        C663   1.451       .  S
C659        C660   1.410       .  A
C659        C665   1.451       .  S
C660        C661   1.411       .  A
C661        C662   1.407       .  A
C661        C664   1.452       .  S
C662        C666   1.451       .  S
C663        N670   1.157       .  T
C664        N671   1.157       .  T
C665        N669   1.157       .  T
C666        N672   1.157       .  T
C667        N676   1.157       .  T
C668        N674   1.157       .  T
C677        C678   1.411       .  A
C677        C682   1.411       .  A
C677        C695   1.451       .  S
C678        C683   1.500       .  S
C678        C679   1.412       .  A
C679        C680   1.413       .  A
C679        C684   1.450       .  S
C680        C681   1.413       .  A
C680        C696   1.449       .  S
C681        C682   1.417       .  A
C682        C685   1.452       .  S
C683        C686   1.409       .  A
C683        C690   1.410       .  A
C684        N701   1.157       .  T
C685        N703   1.157       .  T
C686        C687   1.412       .  A
C686        C691   1.452       .  S
C687        C688   1.421       .  A
C687        C693   1.450       .  S
C688        C689   1.419       .  A
C689        C690   1.413       .  A
C689        C692   1.451       .  S
C690        C694   1.451       .  S
C691        N698   1.157       .  T
C692        N699   1.157       .  T
C693        N697   1.157       .  T
C694        N700   1.157       .  T
C695        N704   1.157       .  T
C696        N702   1.157       .  T
C705        C706   1.411       .  A
C705        C710   1.407       .  A
C705        C723   1.452       .  S
C706        C711   1.493       .  S
C706        C707   1.411       .  A
C707        C708   1.413       .  A
C707        C712   1.449       .  S
C708        C709   1.412       .  A
C708        C724   1.450       .  S
C709        C710   1.412       .  A
C710        C713   1.452       .  S
C711        C714   1.411       .  A
C711        C718   1.411       .  A
C712        N729   1.157       .  T
C713        N731   1.157       .  T
C714        C715   1.410       .  A
C714        C719   1.450       .  S
C715        C716   1.411       .  A
C715        C721   1.450       .  S
C716        C717   1.410       .  A
C717        C718   1.410       .  A
C717        C720   1.451   1_455  S
C718        C722   1.450       .  S
C719        N726   1.157       .  T
C720        N727   1.157       .  T
C721        N725   1.157       .  T
C722        N728   1.157       .  T
C723        N732   1.157       .  T
C724        N730   1.157       .  T
C733        C734   1.409       .  A
C733        C738   1.406       .  A
C733        C751   1.452       .  S
C734        C739   1.489       .  S
C734        C735   1.409       .  A
C735        C736   1.412       .  A
C735        C740   1.450       .  S
C736        C737   1.417       .  A
C736        C752   1.451       .  S
C737        C738   1.416       .  A
C738        C741   1.452       .  S
C739        C742   1.410       .  A
C739        C746   1.411       .  A
C740        N757   1.157       .  T
C741        N759   1.157       .  T
C742        C743   1.408       .  A
C742        C747   1.450       .  S
C743        C744   1.410       .  A
C743        C749   1.451       .  S
C744        C745   1.410       .  A
C745        C746   1.408       .  A
C745        C748   1.451       .  S
C746        C750   1.450       .  S
C747        N754   1.157       .  T
C748        N755   1.157       .  T
C749        N753   1.157       .  T
C750        N756   1.157       .  T
C751        N760   1.157       .  T
C752        N758   1.158       .  T
C761        C762   1.410       .  A
C761        C766   1.408       .  A
C761        C779   1.451       .  S
C762        C767   1.490       .  S
C762        C763   1.409       .  A
C763        C764   1.409       .  A
C763        C768   1.451       .  S
C764        C765   1.414       .  A
C764        C780   1.451       .  S
C765        C766   1.413       .  A
C766        C769   1.451       .  S
C767        C770   1.409   1_554  A
C767        C774   1.409       .  A
C768        N785   1.157   1_554  T
C769        N787   1.157       .  T
C770        C771   1.410       .  A
C770        C775   1.450       .  S
C771        C772   1.415       .  A
C771        C777   1.451       .  S
C772        C773   1.414   1_556  A
C773        C774   1.407       .  A
C773        C776   1.451       .  S
C774        C778   1.451       .  S
C775        N782   1.157       .  T
C776        N783   1.157       .  T
C777        N781   1.157       .  T
C778        N784   1.157       .  T
C779        N788   1.157       .  T
C780        N786   1.157       .  T
C789        C790   1.409       .  A
C789        C794   1.412       .  A
C789        C807   1.450       .  S
C790        C795   1.495       .  S
C790        C791   1.410       .  A
C791        C792   1.409       .  A
C791        C796   1.451       .  S
C792        C793   1.416       .  A
C792        C808   1.452       .  S
C793        C794   1.419       .  A
C794        C797   1.451       .  S
C795        C798   1.408       .  A
C795        C802   1.408       .  A
C796        N813   1.157       .  T
C797        N815   1.158   1_554  T
C798        C799   1.410       .  A
C798        C803   1.453       .  S
C799        C800   1.424       .  A
C799        C805   1.452       .  S
C800        C801   1.421       .  A
C801        C802   1.413       .  A
C801        C804   1.450       .  S
C802        C806   1.450       .  S
C803        N810   1.157       .  T
C804        N811   1.157       .  T
C805        N809   1.158       .  T
C806        N812   1.157       .  T
C807        N816   1.157       .  T
C808        N814   1.157       .  T
C817        C818   1.409       .  A
C817        C822   1.405       .  A
C817        C835   1.451       .  S
C818        C823   1.487       .  S
C818        C819   1.411       .  A
C819        C820   1.408       .  A
C819        C824   1.450       .  S
C820        C821   1.409       .  A
C820        C836   1.450       .  S
C821        C822   1.411       .  A
C822        C825   1.452       .  S
C823        C826   1.408       .  A
C823        C830   1.408       .  A
C824        N841   1.157       .  T
C825        N843   1.157       .  T
C826        C827   1.407       .  A
C826        C831   1.452       .  S
C827        C828   1.418       .  A
C827        C833   1.452       .  S
C828        C829   1.417       .  A
C829        C830   1.408       .  A
C829        C832   1.451       .  S
C830        C834   1.451       .  S
C831        N838   1.157       .  T
C832        N839   1.157       .  T
C833        N837   1.157       .  T
C834        N840   1.157       .  T
C835        N844   1.157       .  T
C836        N842   1.157       .  T
C845        C846   1.410       .  A
C845        C850   1.407       .  A
C845        C863   1.451       .  S
C846        C851   1.493       .  S
C846        C847   1.410       .  A
C847        C848   1.411       .  A
C847        C852   1.450       .  S
C848        C849   1.413       .  A
C848        C864   1.448       .  S
C849        C850   1.415       .  A
C850        C853   1.453       .  S
C851        C854   1.410       .  A
C851        C858   1.412       .  A
C852        N869   1.157       .  T
C853        N871   1.157       .  T
C854        C855   1.410       .  A
C854        C859   1.450       .  S
C855        C856   1.414       .  A
C855        C861   1.451       .  S
C856        C857   1.413       .  A
C857        C858   1.408       .  A
C857        C860   1.452       .  S
C858        C862   1.452       .  S
C859        N866   1.157       .  T
C860        N867   1.157       .  T
C861        N865   1.158       .  T
C862        N868   1.157       .  T
C863        N872   1.157       .  T
C864        N870   1.156       .  T
C873        C874   1.408       .  A
C873        C878   1.410       .  A
C873        C891   1.451       .  S
C874        C879   1.492       .  S
C874        C875   1.408       .  A
C875        C876   1.409       .  A
C875        C880   1.451       .  S
C876        C877   1.420       .  A
C876        C892   1.452       .  S
C877        C878   1.417       .  A
C878        C881   1.449       .  S
C879        C882   1.410       .  A
C879        C886   1.408       .  A
C880        N897   1.157       .  T
C881        N899   1.157       .  T
C882        C883   1.410       .  A
C882        C887   1.451       .  S
C883        C884   1.414       .  A
C883        C889   1.450       .  S
C884        C885   1.417       .  A
C885        C886   1.409       .  A
C885        C888   1.452       .  S
C886        C890   1.451       .  S
C887        N894   1.157       .  T
C888        N895   1.158       .  T
C889        N893   1.157       .  T
C890        N896   1.157       .  T
C891        N900   1.157       .  T
C892        N898   1.158       .  T
C901        C902   1.409   1_455  A
C901        C906   1.404       .  A
C901        C919   1.453       .  S
C902        C907   1.488       .  S
C902        C903   1.409       .  A
C903        C904   1.412       .  A
C903        C908   1.449       .  S
C904        C905   1.415   1_655  A
C904        C920   1.450       .  S
C905        C906   1.417       .  A
C906        C909   1.454       .  S
C907        C910   1.410       .  A
C907        C914   1.408       .  A
C908        N925   1.157       .  T
C909        N927   1.158       .  T
C910        C911   1.410       .  A
C910        C915   1.450   1_655  S
C911        C912   1.413       .  A
C911        C917   1.449       .  S
C912        C913   1.416       .  A
C913        C914   1.406       .  A
C913        C916   1.453       .  S
C914        C918   1.452       .  S
C915        N922   1.157       .  T
C916        N923   1.158       .  T
C917        N921   1.157   1_655  T
C918        N924   1.157       .  T
C919        N928   1.157       .  T
C920        N926   1.157       .  T
C929        C930   1.410       .  A
C929        C934   1.406   1_545  A
C929        C947   1.451       .  S
C930        C935   1.490       .  S
C930        C931   1.410       .  A
C931        C932   1.409       .  A
C931        C936   1.450       .  S
C932        C933   1.412   1_545  A
C932        C948   1.450   1_545  S
C933        C934   1.412       .  A
C934        C937   1.452       .  S
C935        C938   1.410       .  A
C935        C942   1.409       .  A
C936        N953   1.157       .  T
C937        N955   1.157       .  T
C938        C939   1.407       .  A
C938        C943   1.452       .  S
C939        C940   1.415       .  A
C939        C945   1.452       .  S
C940        C941   1.416       .  A
C941        C942   1.409       .  A
C941        C944   1.451       .  S
C942        C946   1.451       .  S
C943        N950   1.157       .  T
C944        N951   1.157       .  T
C945        N949   1.157       .  T
C946        N952   1.157       .  T
C947        N956   1.157       .  T
C948        N954   1.157       .  T
C957        C958   1.410       .  A
C957        C962   1.411       .  A
C957        C975   1.450       .  S
C958        C963   1.492       .  S
C958        C959   1.410       .  A
C959        C960   1.407       .  A
C959        C964   1.452       .  S
C960        C961   1.414       .  A
C960        C976   1.452       .  S
C961        C962   1.415       .  A
C962        C965   1.451       .  S
C963        C966   1.409       .  A
C963        C970   1.409       .  A
C964        N981   1.157   1_455  T
C965        N983   1.157       .  T
C966        C967   1.407       .  A
C966        C971   1.452       .  S
C967        C968   1.418       .  A
C967        C973   1.453       .  S
C968        C969   1.418       .  A
C969        C970   1.412       .  A
C969        C972   1.450       .  S
C970        C974   1.450       .  S
C971        N978   1.157       .  T
C972        N979   1.157   1_455  T
C973        N977   1.158       .  T
C974        N980   1.157       .  T
C975        N984   1.157       .  T
C976        N982   1.157       .  T
C985        C986   1.408       .  A
C985        C990   1.404       .  A
C985       C1003   1.453   1_655  S
C986        C991   1.488       .  S
C986        C987   1.408       .  A
C987        C988   1.411       .  A
C987        C992   1.450       .  S
C988        C989   1.416       .  A
C988       C1004   1.451       .  S
C989        C990   1.417       .  A
C990        C993   1.453       .  S
C991        C994   1.408   1_655  A
C991        C998   1.410       .  A
C992       N1009   1.157       .  T
C993       N1011   1.157   1_655  T
C994        C995   1.409       .  A
C994        C999   1.450       .  S
C995        C996   1.414       .  A
C995       C1001   1.450       .  S
C996        C997   1.415   1_455  A
C997        C998   1.407       .  A
C997       C1000   1.452       .  S
C998       C1002   1.452       .  S
C999       N1006   1.157       .  T
C1000      N1007   1.158       .  T
C1001      N1005   1.157       .  T
C1002      N1008   1.157       .  T
C1003      N1012   1.157       .  T
C1004      N1010   1.157       .  T
C1013      C1014   1.406       .  A
C1013      C1018   1.410       .  A
C1013      C1031   1.451       .  S
C1014      C1019   1.490       .  S
C1014      C1015   1.407       .  A
C1015      C1016   1.407       .  A
C1015      C1020   1.454       .  S
C1016      C1017   1.424       .  A
C1016      C1032   1.453       .  S
C1017      C1018   1.423       .  A
C1018      C1021   1.451       .  S
C1019      C1022   1.406       .  A
C1019      C1026   1.406       .  A
C1020      N1037   1.157       .  T
C1021      N1039   1.158       .  T
C1022      C1023   1.407       .  A
C1022      C1027   1.453       .  S
C1023      C1024   1.426       .  A
C1023      C1029   1.452   1_655  S
C1024      C1025   1.425       .  A
C1025      C1026   1.410       .  A
C1025      C1028   1.451       .  S
C1026      C1030   1.451       .  S
C1027      N1034   1.157       .  T
C1028      N1035   1.157       .  T
C1029      N1033   1.158       .  T
C1030      N1036   1.157       .  T
C1031      N1040   1.157       .  T
C1032      N1038   1.158       .  T
C1041      C1042   1.409       .  A
C1041      C1046   1.407       .  A
C1041      C1059   1.451       .  S
C1042      C1047   1.491       .  S
C1042      C1043   1.409       .  A
C1043      C1044   1.410   1_565  A
C1043      C1048   1.450       .  S
C1044      C1045   1.416       .  A
C1044      C1060   1.451       .  S
C1045      C1046   1.416   1_545  A
C1046      C1049   1.452   1_565  S
C1047      C1050   1.405       .  A
C1047      C1054   1.405       .  A
C1048      N1065   1.157       .  T
C1049      N1067   1.158       .  T
C1050      C1051   1.409       .  A
C1050      C1055   1.453       .  S
C1051      C1052   1.427       .  A
C1051      C1057   1.452       .  S
C1052      C1053   1.428       .  A
C1053      C1054   1.411       .  A
C1053      C1056   1.452       .  S
C1054      C1058   1.452       .  S
C1055      N1062   1.157       .  T
C1056      N1063   1.158       .  T
C1057      N1061   1.158       .  T
C1058      N1064   1.157       .  T
C1059      N1068   1.157       .  T
C1060      N1066   1.157       .  T
C1069      C1070   1.409       .  A
C1069      C1074   1.409       .  A
C1069      C1087   1.451   1_545  S
C1070      C1075   1.489   1_546  S
C1070      C1071   1.409   1_655  A
C1071      C1072   1.407       .  A
C1071      C1076   1.451   1_556  S
C1072      C1073   1.415       .  A
C1072      C1088   1.452       .  S
C1073      C1074   1.416   1_455  A
C1074      C1077   1.452       .  S
C1075      C1078   1.409       .  A
C1075      C1082   1.408   1_565  A
C1076      N1093   1.157       .  T
C1077      N1095   1.157       .  T
C1078      C1079   1.409       .  A
C1078      C1083   1.451   1_654  S
C1079      C1080   1.414       .  A
C1079      C1085   1.450       .  S
C1080      C1081   1.418       .  A
C1081      C1082   1.408   1_565  A
C1081      C1084   1.452       .  S
C1082      C1086   1.451       .  S
C1083      N1090   1.157       .  T
C1084      N1091   1.158   1_565  T
C1085      N1089   1.157       .  T
C1086      N1092   1.157       .  T
C1087      N1096   1.157       .  T
C1088      N1094   1.158       .  T
C1097      C1098   1.407       .  A
C1097      C1102   1.408       .  A
C1097      C1115   1.453       .  S
C1098      C1103   1.495       .  S
C1098      C1099   1.410       .  A
C1099      C1100   1.414       .  A
C1099      C1104   1.450       .  S
C1100      C1101   1.418       .  A
C1100      C1116   1.450       .  S
C1101      C1102   1.424       .  A
C1102      C1105   1.453       .  S
C1103      C1106   1.410       .  A
C1103      C1110   1.411       .  A
C1104      N1121   1.157       .  T
C1105      N1123   1.157       .  T
C1106      C1107   1.410       .  A
C1106      C1111   1.451       .  S
C1107      C1108   1.416       .  A
C1107      C1113   1.452       .  S
C1108      C1109   1.414       .  A
C1109      C1110   1.411       .  A
C1109      C1112   1.451       .  S
C1110      C1114   1.450       .  S
C1111      N1118   1.157       .  T
C1112      N1119   1.157       .  T
C1113      N1117   1.158       .  T
C1114      N1120   1.157       .  T
C1115      N1124   1.157       .  T
C1116      N1122   1.157       .  T
C1125      C1126   1.408       .  A
C1125      C1130   1.407       .  A
C1125      C1143   1.452       .  S
C1126      C1131   1.489       .  S
C1126      C1127   1.408       .  A
C1127      C1128   1.411       .  A
C1127      C1132   1.451       .  S
C1128      C1129   1.418       .  A
C1128      C1144   1.451   1_556  S
C1129      C1130   1.418       .  A
C1130      C1133   1.452       .  S
C1131      C1134   1.410       .  A
C1131      C1138   1.411       .  A
C1132      N1149   1.157       .  T
C1133      N1151   1.157       .  T
C1134      C1135   1.407       .  A
C1134      C1139   1.450       .  S
C1135      C1136   1.410       .  A
C1135      C1141   1.451       .  S
C1136      C1137   1.410       .  A
C1137      C1138   1.409       .  A
C1137      C1140   1.450       .  S
C1138      C1142   1.450       .  S
C1139      N1146   1.157       .  T
C1140      N1147   1.157       .  T
C1141      N1145   1.157       .  T
C1142      N1148   1.157   1_556  T
C1143      N1152   1.157       .  T
C1144      N1150   1.158       .  T
C1153      C1154   1.410       .  A
C1153      C1158   1.410       .  A
C1153      C1171   1.450       .  S
C1154      C1159   1.492   1_655  S
C1154      C1155   1.411       .  A
C1155      C1156   1.408       .  A
C1155      C1160   1.452       .  S
C1156      C1157   1.416       .  A
C1156      C1172   1.453       .  S
C1157      C1158   1.413       .  A
C1158      C1161   1.450       .  S
C1159      C1162   1.411       .  A
C1159      C1166   1.410       .  A
C1160      N1177   1.157       .  T
C1161      N1179   1.157       .  T
C1162      C1163   1.406       .  A
C1162      C1167   1.452       .  S
C1163      C1164   1.414       .  A
C1163      C1169   1.453       .  S
C1164      C1165   1.415       .  A
C1165      C1166   1.411       .  A
C1165      C1168   1.451       .  S
C1166      C1170   1.450   1_455  S
C1167      N1174   1.157       .  T
C1168      N1175   1.157       .  T
C1169      N1173   1.158       .  T
C1170      N1176   1.157       .  T
C1171      N1180   1.157       .  T
C1172      N1178   1.158       .  T
C1181      C1182   1.410       .  A
C1181      C1186   1.410       .  A
C1181      C1199   1.450       .  S
C1182      C1187   1.491       .  S
C1182      C1183   1.411       .  A
C1183      C1184   1.408       .  A
C1183      C1188   1.451       .  S
C1184      C1185   1.411       .  A
C1184      C1200   1.451       .  S
C1185      C1186   1.411       .  A
C1186      C1189   1.450       .  S
C1187      C1190   1.409       .  A
C1187      C1194   1.410       .  A
C1188      N1205   1.157       .  T
C1189      N1207   1.157       .  T
C1190      C1191   1.409       .  A
C1190      C1195   1.450       .  S
C1191      C1192   1.415       .  A
C1191      C1197   1.451       .  S
C1192      C1193   1.415       .  A
C1193      C1194   1.409       .  A
C1193      C1196   1.452       .  S
C1194      C1198   1.451       .  S
C1195      N1202   1.157       .  T
C1196      N1203   1.158       .  T
C1197      N1201   1.157       .  T
C1198      N1204   1.157       .  T
C1199      N1208   1.157       .  T
C1200      N1206   1.157       .  T
C1209      C1210   1.411       .  A
C1209      C1214   1.408       .  A
C1209      C1227   1.450       .  S
C1210      C1215   1.488       .  S
C1210      C1211   1.409       .  A
C1211      C1212   1.407       .  A
C1211      C1216   1.451       .  S
C1212      C1213   1.413       .  A
C1212      C1228   1.452       .  S
C1213      C1214   1.411       .  A
C1214      C1217   1.451       .  S
C1215      C1218   1.410       .  A
C1215      C1222   1.410       .  A
C1216      N1233   1.157       .  T
C1217      N1235   1.157       .  T
C1218      C1219   1.403       .  A
C1218      C1223   1.452       .  S
C1219      C1220   1.413       .  A
C1219      C1225   1.454       .  S
C1220      C1221   1.411       .  A
C1221      C1222   1.411       .  A
C1221      C1224   1.450       .  S
C1222      C1226   1.449       .  S
C1223      N1230   1.157       .  T
C1224      N1231   1.157       .  T
C1225      N1229   1.157       .  T
C1226      N1232   1.157       .  T
C1227      N1236   1.157       .  T
C1228      N1234   1.157       .  T
C1237      C1238   1.408       .  A
C1237      C1242   1.410       .  A
C1237      C1255   1.452       .  S
C1238      C1243   1.495       .  S
C1238      C1239   1.408       .  A
C1239      C1240   1.412       .  A
C1239      C1244   1.450       .  S
C1240      C1241   1.419       .  A
C1240      C1256   1.451       .  S
C1241      C1242   1.421       .  A
C1242      C1245   1.452       .  S
C1243      C1246   1.409       .  A
C1243      C1250   1.411       .  A
C1244      N1261   1.157       .  T
C1245      N1263   1.158       .  T
C1246      C1247   1.412       .  A
C1246      C1251   1.450       .  S
C1247      C1248   1.416       .  A
C1247      C1253   1.451       .  S
C1248      C1249   1.415       .  A
C1249      C1250   1.409       .  A
C1249      C1252   1.452       .  S
C1250      C1254   1.452       .  S
C1251      N1258   1.157       .  T
C1252      N1259   1.158       .  T
C1253      N1257   1.157       .  T
C1254      N1260   1.157       .  T
C1255      N1264   1.157       .  T
C1256      N1262   1.157   1_655  T
C1265      C1266   1.409       .  A
C1265      C1270   1.406       .  A
C1265      C1283   1.452       .  S
C1266      C1271   1.486       .  S
C1266      C1267   1.409       .  A
C1267      C1268   1.408       .  A
C1267      C1272   1.450       .  S
C1268      C1269   1.413       .  A
C1268      C1284   1.451       .  S
C1269      C1270   1.414       .  A
C1270      C1273   1.453       .  S
C1271      C1274   1.408       .  A
C1271      C1278   1.407       .  A
C1272      N1289   1.157       .  T
C1273      N1291   1.158       .  T
C1274      C1275   1.406       .  A
C1274      C1279   1.452       .  S
C1275      C1276   1.418       .  A
C1275      C1281   1.452       .  S
C1276      C1277   1.419       .  A
C1277      C1278   1.408       .  A
C1277      C1280   1.452       .  S
C1278      C1282   1.451       .  S
C1279      N1286   1.157       .  T
C1280      N1287   1.157       .  T
C1281      N1285   1.157       .  T
C1282      N1288   1.157       .  T
C1283      N1292   1.157       .  T
C1284      N1290   1.157       .  T
C1293      C1294   1.410       .  A
C1293      C1298   1.412       .  A
C1293      C1311   1.450       .  S
C1294      C1299   1.491       .  S
C1294      C1295   1.408       .  A
C1295      C1296   1.406       .  A
C1295      C1300   1.451       .  S
C1296      C1297   1.415       .  A
C1296      C1312   1.452       .  S
C1297      C1298   1.413       .  A
C1298      C1301   1.449       .  S
C1299      C1302   1.410       .  A
C1299      C1306   1.409       .  A
C1300      N1317   1.157       .  T
C1301      N1319   1.157       .  T
C1302      C1303   1.407       .  A
C1302      C1307   1.453       .  S
C1303      C1304   1.418       .  A
C1303      C1309   1.453       .  S
C1304      C1305   1.415       .  A
C1305      C1306   1.412       .  A
C1305      C1308   1.450       .  S
C1306      C1310   1.450       .  S
C1307      N1314   1.157       .  T
C1308      N1315   1.157       .  T
C1309      N1313   1.158       .  T
C1310      N1316   1.157       .  T
C1311      N1320   1.157       .  T
C1312      N1318   1.157       .  T
C1321      C1322   1.410       .  A
C1321      C1326   1.410       .  A
C1321      C1339   1.450       .  S
C1322      C1327   1.494       .  S
C1322      C1323   1.411       .  A
C1323      C1324   1.409       .  A
C1323      C1328   1.451       .  S
C1324      C1325   1.414       .  A
C1324      C1340   1.452   1_554  S
C1325      C1326   1.413       .  A
C1326      C1329   1.451       .  S
C1327      C1330   1.409       .  A
C1327      C1334   1.407       .  A
C1328      N1345   1.157       .  T
C1329      N1347   1.157       .  T
C1330      C1331   1.409       .  A
C1330      C1335   1.452       .  S
C1331      C1332   1.421       .  A
C1331      C1337   1.452       .  S
C1332      C1333   1.420       .  A
C1333      C1334   1.412       .  A
C1333      C1336   1.449       .  S
C1334      C1338   1.451       .  S
C1335      N1342   1.157       .  T
C1336      N1343   1.157       .  T
C1337      N1341   1.158       .  T
C1338      N1344   1.157       .  T
C1339      N1348   1.157       .  T
C1340      N1346   1.158       .  T
C1349      C1350   1.409   1_556  A
C1349      C1354   1.409       .  A
C1349      C1367   1.452       .  S
C1350      C1355   1.493       .  S
C1350      C1351   1.410       .  A
C1351      C1352   1.409       .  A
C1351      C1356   1.452       .  S
C1352      C1353   1.418   1_554  A
C1352      C1368   1.452       .  S
C1353      C1354   1.419       .  A
C1354      C1357   1.452       .  S
C1355      C1358   1.412       .  A
C1355      C1362   1.411       .  A
C1356      N1373   1.157       .  T
C1357      N1375   1.158       .  T
C1358      C1359   1.409       .  A
C1358      C1363   1.451       .  S
C1359      C1360   1.410       .  A
C1359      C1365   1.450       .  S
C1360      C1361   1.412       .  A
C1361      C1362   1.408       .  A
C1361      C1364   1.452       .  S
C1362      C1366   1.451       .  S
C1363      N1370   1.157       .  T
C1364      N1371   1.157       .  T
C1365      N1369   1.157       .  T
C1366      N1372   1.157       .  T
C1367      N1376   1.157       .  T
C1368      N1374   1.157       .  T
C1377      C1378   1.409       .  A
C1377      C1382   1.408       .  A
C1377      C1395   1.451       .  S
C1378      C1383   1.488       .  S
C1378      C1379   1.408       .  A
C1379      C1380   1.407       .  A
C1379      C1384   1.451       .  S
C1380      C1381   1.416       .  A
C1380      C1396   1.452       .  S
C1381      C1382   1.414       .  A
C1382      C1385   1.451       .  S
C1383      C1386   1.409       .  A
C1383      C1390   1.411       .  A
C1384      N1401   1.157       .  T
C1385      N1403   1.157       .  T
C1386      C1387   1.406       .  A
C1386      C1391   1.451       .  S
C1387      C1388   1.414       .  A
C1387      C1393   1.452       .  S
C1388      C1389   1.412       .  A
C1389      C1390   1.409       .  A
C1389      C1392   1.451       .  S
C1390      C1394   1.451       .  S
C1391      N1398   1.157       .  T
C1392      N1399   1.157       .  T
C1393      N1397   1.157       .  T
C1394      N1400   1.157       .  T
C1395      N1404   1.157       .  T
C1396      N1402   1.157       .  T
C1405      C1406   1.411       .  A
C1405      C1410   1.414       .  A
C1405      C1423   1.450       .  S
C1406      C1411   1.499       .  S
C1406      C1407   1.411       .  A
C1407      C1408   1.410       .  A
C1407      C1412   1.451       .  S
C1408      C1409   1.415       .  A
C1408      C1424   1.452       .  S
C1409      C1410   1.415       .  A
C1410      C1413   1.448       .  S
C1411      C1414   1.412       .  A
C1411      C1418   1.411       .  A
C1412      N1429   1.157       .  T
C1413      N1431   1.157       .  T
C1414      C1415   1.411       .  A
C1414      C1419   1.451       .  S
C1415      C1416   1.416       .  A
C1415      C1421   1.452       .  S
C1416      C1417   1.415       .  A
C1417      C1418   1.413       .  A
C1417      C1420   1.450       .  S
C1418      C1422   1.450       .  S
C1419      N1426   1.157       .  T
C1420      N1427   1.157       .  T
C1421      N1425   1.158       .  T
C1422      N1428   1.157       .  T
C1423      N1432   1.157       .  T
C1424      N1430   1.157       .  T
C1433      C1434   1.409       .  A
C1433      C1438   1.409   1_545  A
C1433      C1451   1.452       .  S
C1434      C1439   1.493       .  S
C1434      C1435   1.408       .  A
C1435      C1436   1.410       .  A
C1435      C1440   1.451       .  S
C1436      C1437   1.420   1_545  A
C1436      C1452   1.452       .  S
C1437      C1438   1.419       .  A
C1438      C1441   1.451       .  S
C1439      C1442   1.412       .  A
C1439      C1446   1.411       .  A
C1440      N1457   1.157       .  T
C1441      N1459   1.157       .  T
C1442      C1443   1.409       .  A
C1442      C1447   1.450       .  S
C1443      C1444   1.409       .  A
C1443      C1449   1.449       .  S
C1444      C1445   1.412       .  A
C1445      C1446   1.408       .  A
C1445      C1448   1.452       .  S
C1446      C1450   1.451       .  S
C1447      N1454   1.157       .  T
C1448      N1455   1.157       .  T
C1449      N1453   1.157       .  T
C1450      N1456   1.157       .  T
C1451      N1460   1.157       .  T
C1452      N1458   1.158       .  T
C1461      C1462   1.412       .  A
C1461      C1466   1.410       .  A
C1461      C1479   1.450       .  S
C1462      C1467   1.493       .  S
C1462      C1463   1.411       .  A
C1463      C1464   1.407       .  A
C1463      C1468   1.451       .  S
C1464      C1465   1.412       .  A
C1464      C1480   1.452       .  S
C1465      C1466   1.410       .  A
C1466      C1469   1.450       .  S
C1467      C1470   1.412       .  A
C1467      C1474   1.410       .  A
C1468      N1485   1.157       .  T
C1469      N1487   1.157       .  T
C1470      C1471   1.407       .  A
C1470      C1475   1.452       .  S
C1471      C1472   1.413       .  A
C1471      C1477   1.453       .  S
C1472      C1473   1.414       .  A
C1473      C1474   1.410       .  A
C1473      C1476   1.451       .  S
C1474      C1478   1.450       .  S
C1475      N1482   1.157       .  T
C1476      N1483   1.157   1_554  T
C1477      N1481   1.158       .  T
C1478      N1484   1.157       .  T
C1479      N1488   1.157       .  T
C1480      N1486   1.157       .  T
C1489      C1490   1.411       .  A
C1489      C1494   1.407       .  A
C1489      C1507   1.451       .  S
C1490      C1495   1.493       .  S
C1490      C1491   1.410       .  A
C1491      C1492   1.411       .  A
C1491      C1496   1.450       .  S
C1492      C1493   1.413       .  A
C1492      C1508   1.449       .  S
C1493      C1494   1.412       .  A
C1494      C1497   1.452       .  S
C1495      C1498   1.409       .  A
C1495      C1502   1.410       .  A
C1496      N1513   1.157       .  T
C1497      N1515   1.157       .  T
C1498      C1499   1.412       .  A
C1498      C1503   1.450       .  S
C1499      C1500   1.418       .  A
C1499      C1505   1.450       .  S
C1500      C1501   1.417       .  A
C1501      C1502   1.407       .  A
C1501      C1504   1.453       .  S
C1502      C1506   1.452       .  S
C1503      N1510   1.157       .  T
C1504      N1511   1.158   1_554  T
C1505      N1509   1.157       .  T
C1506      N1512   1.157       .  T
C1507      N1516   1.157       .  T
C1508      N1514   1.157       .  T
C1517      C1518   1.406       .  A
C1517      C1522   1.409       .  A
C1517      C1535   1.452       .  S
C1518      C1523   1.489       .  S
C1518      C1519   1.407       .  A
C1519      C1520   1.409       .  A
C1519      C1524   1.451       .  S
C1520      C1521   1.420       .  A
C1520      C1536   1.452       .  S
C1521      C1522   1.422       .  A
C1522      C1525   1.450       .  S
C1523      C1526   1.410       .  A
C1523      C1530   1.411       .  A
C1524      N1541   1.157       .  T
C1525      N1543   1.157       .  T
C1526      C1527   1.408       .  A
C1526      C1531   1.450       .  S
C1527      C1528   1.411       .  A
C1527      C1533   1.451       .  S
C1528      C1529   1.411       .  A
C1529      C1530   1.407       .  A
C1529      C1532   1.452       .  S
C1530      C1534   1.451       .  S
C1531      N1538   1.157       .  T
C1532      N1539   1.157       .  T
C1533      N1537   1.157       .  T
C1534      N1540   1.157       .  T
C1535      N1544   1.157       .  T
C1536      N1542   1.157       .  T
C1545      C1546   1.410       .  A
C1545      C1550   1.407       .  A
C1545      C1563   1.451       .  S
C1546      C1551   1.494       .  S
C1546      C1547   1.412       .  A
C1547      C1548   1.412       .  A
C1547      C1552   1.450       .  S
C1548      C1549   1.412       .  A
C1548      C1564   1.449       .  S
C1549      C1550   1.412       .  A
C1550      C1553   1.452       .  S
C1551      C1554   1.410       .  A
C1551      C1558   1.409       .  A
C1552      N1569   1.157       .  T
C1553      N1571   1.157       .  T
C1554      C1555   1.414       .  A
C1554      C1559   1.450       .  S
C1555      C1556   1.416       .  A
C1555      C1561   1.449       .  S
C1556      C1557   1.420       .  A
C1557      C1558   1.406       .  A
C1557      C1560   1.454       .  S
C1558      C1562   1.453       .  S
C1559      N1566   1.157       .  T
C1560      N1567   1.158       .  T
C1561      N1565   1.157       .  T
C1562      N1568   1.157       .  T
C1563      N1572   1.157       .  T
C1564      N1570   1.157       .  T
C1573      C1574   1.409       .  A
C1573      C1578   1.412       .  A
C1573      C1591   1.450       .  S
C1574      C1579   1.493       .  S
C1574      C1575   1.410       .  A
C1575      C1576   1.408       .  A
C1575      C1580   1.452       .  S
C1576      C1577   1.416       .  A
C1576      C1592   1.452       .  S
C1577      C1578   1.417       .  A
C1578      C1581   1.451       .  S
C1579      C1582   1.410       .  A
C1579      C1586   1.409       .  A
C1580      N1597   1.157       .  T
C1581      N1599   1.157       .  T
C1582      C1583   1.409       .  A
C1582      C1587   1.451       .  S
C1583      C1584   1.415       .  A
C1583      C1589   1.452       .  S
C1584      C1585   1.414       .  A
C1585      C1586   1.410       .  A
C1585      C1588   1.450       .  S
C1586      C1590   1.450       .  S
C1587      N1594   1.157       .  T
C1588      N1595   1.157       .  T
C1589      N1593   1.158       .  T
C1590      N1596   1.157       .  T
C1591      N1600   1.157       .  T
C1592      N1598   1.158       .  T
C1601      C1602   1.413       .  A
C1601      C1606   1.406       .  A
C1601      C1619   1.452       .  S
C1602      C1607   1.490       .  S
C1602      C1603   1.411       .  A
C1603      C1604   1.408   1_565  A
C1603      C1608   1.450       .  S
C1604      C1605   1.412       .  A
C1604      C1620   1.451       .  S
C1605      C1606   1.410   1_545  A
C1606      C1609   1.451       .  S
C1607      C1610   1.411       .  A
C1607      C1614   1.412       .  A
C1608      N1625   1.157       .  T
C1609      N1627   1.157       .  T
C1610      C1611   1.407       .  A
C1610      C1615   1.451       .  S
C1611      C1612   1.409       .  A
C1611      C1617   1.451       .  S
C1612      C1613   1.410       .  A
C1613      C1614   1.408       .  A
C1613      C1616   1.451       .  S
C1614      C1618   1.451       .  S
C1615      N1622   1.157       .  T
C1616      N1623   1.157       .  T
C1617      N1621   1.157       .  T
C1618      N1624   1.157       .  T
C1619      N1628   1.157       .  T
C1620      N1626   1.157       .  T
C1629      C1630   1.408   1_565  A
C1629      C1634   1.409   1_565  A
C1629      C1647   1.451       .  S
C1630      C1635   1.494   1_545  S
C1630      C1631   1.410       .  A
C1631      C1632   1.412       .  A
C1631      C1636   1.451       .  S
C1632      C1633   1.415       .  A
C1632      C1648   1.450       .  S
C1633      C1634   1.420       .  A
C1634      C1637   1.453       .  S
C1635      C1638   1.409       .  A
C1635      C1642   1.410       .  A
C1636      N1653   1.157       .  T
C1637      N1655   1.158   1_545  T
C1638      C1639   1.409       .  A
C1638      C1643   1.451       .  S
C1639      C1640   1.418       .  A
C1639      C1645   1.452       .  S
C1640      C1641   1.416       .  A
C1641      C1642   1.411       .  A
C1641      C1644   1.451       .  S
C1642      C1646   1.451       .  S
C1643      N1650   1.157       .  T
C1644      N1651   1.157       .  T
C1645      N1649   1.157       .  T
C1646      N1652   1.157   1_565  T
C1647      N1656   1.157       .  T
C1648      N1654   1.157       .  T
C1657      C1658   1.409       .  A
C1657      C1662   1.406       .  A
C1657      C1675   1.452       .  S
C1658      C1663   1.491       .  S
C1658      C1659   1.410       .  A
C1659      C1660   1.412       .  A
C1659      C1664   1.450       .  S
C1660      C1661   1.413       .  A
C1660      C1676   1.450       .  S
C1661      C1662   1.416       .  A
C1662      C1665   1.453       .  S
C1663      C1666   1.409       .  A
C1663      C1670   1.411       .  A
C1664      N1681   1.157       .  T
C1665      N1683   1.158       .  T
C1666      C1667   1.409       .  A
C1666      C1671   1.450       .  S
C1667      C1668   1.414       .  A
C1667      C1673   1.451       .  S
C1668      C1669   1.413       .  A
C1669      C1670   1.408       .  A
C1669      C1672   1.452       .  S
C1670      C1674   1.452       .  S
C1671      N1678   1.157       .  T
C1672      N1679   1.157       .  T
C1673      N1677   1.157       .  T
C1674      N1680   1.157       .  T
C1675      N1684   1.157       .  T
C1676      N1682   1.157   1_556  T
C1685      C1686   1.408       .  A
C1685      C1690   1.409       .  A
C1685      C1703   1.451       .  S
C1686      C1691   1.486       .  S
C1686      C1687   1.407       .  A
C1687      C1688   1.405       .  A
C1687      C1692   1.451       .  S
C1688      C1689   1.417       .  A
C1688      C1704   1.452       .  S
C1689      C1690   1.417       .  A
C1690      C1693   1.451       .  S
C1691      C1694   1.410       .  A
C1691      C1698   1.410       .  A
C1692      N1709   1.157       .  T
C1693      N1711   1.157       .  T
C1694      C1695   1.408       .  A
C1694      C1699   1.450       .  S
C1695      C1696   1.410       .  A
C1695      C1701   1.450       .  S
C1696      C1697   1.410       .  A
C1697      C1698   1.406       .  A
C1697      C1700   1.451       .  S
C1698      C1702   1.451       .  S
C1699      N1706   1.157       .  T
C1700      N1707   1.157       .  T
C1701      N1705   1.157       .  T
C1702      N1708   1.157       .  T
C1703      N1712   1.157       .  T
C1704      N1710   1.157       .  T
