geometry optimzed in LAMMPS
_audit_creation_date              2020-12-01 
_audit_creation_method            'lammps2cif' 
_symmetry_space_group_name_H-M    'P1' 
_symmetry_Int_Tables_number       1 
_symmetry_cell_setting            triclinic 
loop_ 
_symmetry_equiv_pos_as_xyz 
  x,y,z 
_cell_length_a                    82.19892096 
_cell_length_b                    82.26718132641525 
_cell_length_c                    49.70092662326023 
_cell_angle_alpha                 89.6049146758463 
_cell_angle_beta                  90.34939771922635 
_cell_angle_gamma                 120.48241561748077 
loop_ 
_atom_site_label 
_atom_site_type_symbol 
_atom_site_fract_x 
_atom_site_fract_y 
_atom_site_fract_z 
_atom_site_charge 
O1          O  0.85196880  0.24144120  0.23898176    -0.78300
C2          C  0.87549489  0.26548025  0.31851576     0.82700
O3          O  0.81842568  0.27114268  0.26028338    -0.79400
O4          O  0.87422378  0.31934726  0.30072309    -0.80900
O5          O  0.90824893  0.30253231  0.23342382    -0.80700
O6          O  0.87304946  0.26094191  0.20933611    -0.79300
Zn7        Zn  0.85166550  0.25827667  0.26798964     1.55700
O8          O  0.90927612  0.31478152  0.27374307    -0.80700
Cd9        Cd  0.87954930  0.28700341  0.22471604     1.59700
Cd10       Cd  0.84555084  0.29253599  0.24897784     1.59600
O11         O  0.87285739  0.30004264  0.19470183    -0.80700
O12         O  0.86436270  0.28437958  0.25718498    -1.91200
Cd13       Cd  0.88155524  0.30012887  0.28693122     1.59900
O14         O  0.84736477  0.30071528  0.20832599    -0.80700
O15         O  0.88200125  0.28323867  0.31795773    -0.79300
C16         C  0.81327680  0.25551792  0.27242999     0.83200
C17         C  0.86135120  0.24427974  0.21741584     0.82900
O18         O  0.86431067  0.25469248  0.30034272    -0.78300
C19         C  0.91751088  0.31310074  0.25318025     0.83700
O20         O  0.82481121  0.24975019  0.27685136    -0.78400
C21         C  0.85967759  0.30364387  0.19035947     0.83800
C22         C  0.86249400  0.32409547  0.29229967     0.84100
O23         O  0.85135379  0.31569038  0.27259624    -0.80800
O24         O  0.90983359  0.18335896  0.58476666    -0.78300
C25         C  0.93451103  0.20825866  0.50502959     0.82700
O26         O  0.93993263  0.15256678  0.56912395    -0.79400
O27         O  0.98851126  0.20677820  0.52540900    -0.80900
O28         O  0.97133400  0.24306513  0.58869690    -0.80700
O29         O  0.92759761  0.20753843  0.61157680    -0.79300
Zn30       Zn  0.92747328  0.18495746  0.55573805     1.55700
O31         O  0.98341037  0.24235433  0.54889587    -0.80700
Cd32       Cd  0.95448321  0.21452986  0.59832853     1.59700
Cd33       Cd  0.96124471  0.18018798  0.57908977     1.59600
O34         O  0.96638002  0.20867117  0.63073369    -0.80700
O35         O  0.95315373  0.19845140  0.56764146    -1.91200
Cd36       Cd  0.96891815  0.21440112  0.53697511     1.59900
O37         O  0.96871189  0.18358080  0.62024717    -0.80700
O38         O  0.95214742  0.21402193  0.50503534    -0.79300
C39         C  0.92546125  0.14722481  0.55395148     0.83200
C40         C  0.91154651  0.19359758  0.60490601     0.82900
O41         O  0.92375959  0.19783148  0.52384726    -0.78300
C42         C  0.98226957  0.25145466  0.56879247     0.83700
O43         O  0.92025046  0.15864611  0.54603073    -0.78400
C44         C  0.97048400  0.19611546  0.63705774     0.83800
C45         C  0.99361276  0.19599831  0.53651912     0.84100
O46         O  0.98508128  0.18587567  0.55708939    -0.80800
O47         O  0.95304551  0.43257640  0.90662383    -0.78300
C48         C  0.94711661  0.40355091  0.83033309     0.82700
O49         O  0.88864253  0.40353590  0.89453491    -0.79400
O50         O  0.89346194  0.35159999  0.85608344    -0.80900
O51         O  0.94726549  0.37238058  0.92143930    -0.80700
O52         O  0.95459991  0.41527844  0.93982809    -0.79300
Zn53       Zn  0.93375096  0.41421952  0.88068207     1.55700
O54         O  0.93413107  0.35711990  0.88331049    -0.80700
Cd55       Cd  0.93452106  0.38838322  0.92746844     1.59700
Cd56       Cd  0.89353346  0.38127070  0.90459548     1.59600
O57         O  0.91602800  0.37730684  0.95894173    -0.80700
O58         O  0.92041009  0.38883643  0.89504790    -1.91200
Cd59       Cd  0.92078647  0.37108869  0.86802226     1.59900
O60         O  0.88848852  0.37410353  0.94601622    -0.80700
O61         O  0.93684536  0.38588448  0.83480013    -0.79300
C62         C  0.89924781  0.41904186  0.88200464     0.83200
C63         C  0.95978294  0.43127540  0.92910193     0.82900
O64         O  0.94726845  0.41565968  0.84633568    -0.78300
C65         C  0.94492843  0.36027880  0.90360203     0.83700
O66         O  0.91590007  0.42364069  0.87481456    -0.78400
C67         C  0.89915902  0.37312307  0.96407868     0.83800
C68         C  0.87709104  0.34793377  0.86357241     0.84100
O69         O  0.87490477  0.35758502  0.88179224    -0.80800
O70         O  0.07181610  0.49213316  0.58097896    -0.78300
C71         C  0.07216421  0.46563827  0.65844982     0.82700
O72         O  0.13438848  0.52572814  0.60000955    -0.79400
O73         O  0.12744916  0.46888225  0.63928247    -0.80900
O74         O  0.07605114  0.43558504  0.57060352    -0.80700
O75         O  0.06945113  0.47147017  0.55040367    -0.79300
Zn76       Zn  0.08883897  0.49137670  0.60976024     1.55700
O77         O  0.08828449  0.43383394  0.60986501    -0.80700
Cd78       Cd  0.08894353  0.46455155  0.56448402     1.59700
Cd79       Cd  0.12917572  0.49867751  0.58907348     1.59600
O80         O  0.10846825  0.47178417  0.53455407    -0.80700
O81         O  0.10211443  0.47918395  0.59721751    -1.91200
Cd82       Cd  0.10071653  0.46100909  0.62520292     1.59900
O83         O  0.13532860  0.49691294  0.54826322    -0.80700
O84         O  0.08328267  0.45914315  0.65659393    -0.79300
C85         C  0.12429642  0.53020005  0.61421369     0.83200
C86         C  0.06497657  0.48322367  0.55908061     0.82900
O87         O  0.07243541  0.47739758  0.64139601    -0.78300
C88         C  0.07820119  0.42597195  0.58906404     0.83700
O89         O  0.10733864  0.51807644  0.62049461    -0.78400
C90         C  0.12549843  0.48468076  0.53027662     0.83800
C91         C  0.14406947  0.48135992  0.63196464     0.84100
O92         O  0.14690321  0.49313075  0.61304506    -0.80800
O93         O  0.09998921  0.27554225  0.92225569    -0.78300
C94         C  0.06972074  0.27169800  0.99732361     0.82700
O95         O  0.06953747  0.21221474  0.93582694    -0.79400
O96         O  0.01859812  0.21704720  0.97126383    -0.80900
O97         O  0.03902528  0.27138010  0.90653848    -0.80700
O98         O  0.08320232  0.28010541  0.89104865    -0.79300
Zn99       Zn  0.08073290  0.25723589  0.94854921     1.55700
O100        O  0.02247015  0.25651942  0.94316555    -0.80700
Cd101      Cd  0.05594784  0.25954943  0.90102880     1.59700
Cd102      Cd  0.04894874  0.21860101  0.92238919     1.59600
O103        O  0.04582954  0.24182086  0.86834262    -0.80700
O104        O  0.05581833  0.24488928  0.93307081    -1.91200
Cd105      Cd  0.03754623  0.24469181  0.95969009     1.59900
O106        O  0.04354946  0.21461430  0.88076760    -0.80700
O107        O  0.05203499  0.26166954  0.99258448    -0.79300
C108        C  0.08324112  0.22157884  0.95215158     0.83200
C109        C  0.09903741  0.28374398  0.90096208     0.82900
O110        O  0.08185180  0.27140343  0.98183368    -0.78300
C111        C  0.02583701  0.26767350  0.92325303     0.83700
O112        O  0.08802488  0.23829630  0.95906365    -0.78400
C113        C  0.04222494  0.22517938  0.86290373     0.83800
C114        C  0.01469134  0.20113961  0.96144219     0.84100
O115        O  0.02428799  0.19980636  0.94235775    -0.80800
O116        O  0.15454563  0.39133209  0.24482291    -0.78300
C117        C  0.12809856  0.39582988  0.17203655     0.82700
O118        O  0.19133482  0.45513954  0.23278835    -0.79400
O119        O  0.13498390  0.45147741  0.19573205    -0.80900
O120        O  0.10133630  0.39915998  0.26417660    -0.80700
O121        O  0.13590837  0.38884223  0.27858700    -0.79300
Zn122      Zn  0.15520389  0.41060191  0.21950145     1.55700
O123        O  0.09955317  0.41378187  0.22728427    -0.80700
Cd124      Cd  0.13031432  0.41005259  0.26823477     1.59700
Cd125      Cd  0.16460047  0.45089254  0.24399697     1.59600
O126        O  0.14013206  0.42832690  0.30017515    -0.80700
O127        O  0.14426168  0.42416526  0.23528620    -1.91200
Cd128      Cd  0.12570071  0.42423489  0.20933046     1.59900
O129        O  0.16378170  0.45599797  0.28542986    -0.80700
O130        O  0.12079800  0.40587955  0.17759041    -0.79300
C131        C  0.19525901  0.44423152  0.21963495     0.83200
C132        C  0.14657995  0.38397540  0.26706306     0.82900
O133        O  0.14156138  0.39675561  0.18603850    -0.78300
C134        C  0.09185719  0.40307039  0.24761035     0.83700
O135        O  0.18243710  0.42783984  0.21238903    -0.78400
C136        C  0.15311913  0.44533332  0.30435339     0.83800
C137        C  0.14805827  0.46778804  0.20324028     0.84100
O138        O  0.15984501  0.46985976  0.22174973    -0.80800
O139        O  0.13887184  0.74357038  0.69752879    -0.78300
C140        C  0.14399243  0.75764619  0.78036650     0.82700
O141        O  0.19035664  0.73582032  0.73870220    -0.79400
O142        O  0.13715810  0.70397862  0.80638022    -0.80900
O143        O  0.09830385  0.68419681  0.73040512    -0.80700
O144        O  0.12300668  0.71416424  0.68216949    -0.79300
Zn145      Zn  0.15307507  0.74291827  0.73001294     1.55700
O146        O  0.09991190  0.69806677  0.76958087    -0.80700
Cd147      Cd  0.12561802  0.69960506  0.71499290     1.59700
Cd148      Cd  0.16420136  0.71244538  0.75115023     1.59600
O149        O  0.13470840  0.68129241  0.70269973    -0.80700
O150        O  0.14312214  0.71756647  0.74299175    -1.91200
Cd151      Cd  0.12865901  0.71525083  0.77625315     1.59900
O152        O  0.15973084  0.68897973  0.72899364    -0.80700
O153        O  0.13404846  0.74123729  0.79055470    -0.79300
C154        C  0.19350776  0.75081671  0.72617616     0.83200
C155        C  0.12803441  0.73157227  0.68019454     0.82900
O156        O  0.15186960  0.75996770  0.75759592    -0.78300
C157        C  0.09039713  0.68630112  0.75107957     0.83700
O158        O  0.18024359  0.75411480  0.72113317    -0.78400
C159        C  0.14799213  0.67865975  0.71081601     0.83800
C160        C  0.15121116  0.70171867  0.81058756     0.84100
O161        O  0.16357224  0.70531286  0.79234502    -0.80800
O162        O  0.08280079  0.80063296  0.47493664    -0.78300
C163        C  0.09804150  0.80627426  0.39379456     0.82700
O164        O  0.07165116  0.84996031  0.43295755    -0.79400
O165        O  0.04536275  0.79789910  0.36548997    -0.80900
O166        O  0.02219220  0.75832912  0.43975300    -0.80700
O167        O  0.05321091  0.78129789  0.48783680    -0.79300
Zn168      Zn  0.08135270  0.81455623  0.44265780     1.55700
O169        O  0.03720193  0.75982088  0.40176679    -0.80700
Cd170      Cd  0.03847078  0.78492371  0.45636835     1.59700
Cd171      Cd  0.04888055  0.82312078  0.42096408     1.59600
O172        O  0.02057778  0.79359937  0.47063802    -0.80700
O173        O  0.05599108  0.80323999  0.42905084    -1.91200
Cd174      Cd  0.05518071  0.78878922  0.39653488     1.59900
O175        O  0.02527945  0.81779594  0.44452558    -0.80700
O176        O  0.08184443  0.79465842  0.38410268    -0.79300
C177        C  0.08678359  0.85394541  0.44588907     0.83200
C178        C  0.07092125  0.78810132  0.49086572     0.82900
O179        O  0.09959401  0.81497072  0.41557482    -0.78300
C180        C  0.02444841  0.75043890  0.41925889     0.83700
O181        O  0.09083227  0.84130340  0.45161610    -0.78400
C182        C  0.01645428  0.80603622  0.46358582     0.83800
C183        C  0.04139153  0.81074361  0.36069965     0.84100
O184        O  0.04208579  0.82193656  0.37916412    -0.80800
O185        O  0.86671987  0.60821854  0.80374749    -0.78300
C186        C  0.86362635  0.61614458  0.72032820     0.82700
O187        O  0.81620255  0.54754301  0.76558342    -0.79400
O188        O  0.86885103  0.56893509  0.69878507    -0.80900
O189        O  0.90744826  0.58760578  0.77513105    -0.80700
O190        O  0.88339518  0.59612144  0.82087067    -0.79300
Zn191      Zn  0.85309254  0.59262883  0.77169425     1.55700
O192        O  0.90713469  0.59926710  0.73458531    -0.80700
Cd193      Cd  0.88049153  0.57765828  0.79020546     1.59700
Cd194      Cd  0.84235566  0.55038719  0.75456620     1.59600
O195        O  0.87087059  0.55080378  0.80532213    -0.80700
O196        O  0.86332667  0.57719997  0.76116532    -1.91200
Cd197      Cd  0.87850247  0.58907909  0.72808951     1.59900
O198        O  0.84652882  0.53181420  0.77897088    -0.80700
O199        O  0.87431954  0.61017398  0.71215304    -0.79300
C200        C  0.81276664  0.55961927  0.77623634     0.83200
C201        C  0.87773720  0.60796742  0.82162587     0.82900
O202        O  0.85470616  0.61030659  0.74240540    -0.78300
C203        C  0.91588397  0.59653250  0.75377785     0.83700
O204        O  0.82584622  0.57656504  0.78023544    -0.78400
C205        C  0.85798442  0.53432330  0.79821891     0.83800
C206        C  0.85472193  0.55244943  0.69507563     0.84100
O207        O  0.84273631  0.54342518  0.71375976    -0.80800
O208        O  0.92398777  0.72715173  0.02078243    -0.78300
C209        C  0.91095943  0.71990532  0.10205964     0.82700
O210        O  0.94167711  0.78948200  0.06414388    -0.79400
O211        O  0.96705836  0.76077012  0.12889980    -0.80900
O212        O  0.98355308  0.74094842  0.05147007    -0.80700
O213        O  0.95278721  0.73615986  0.00591647    -0.79300
Zn214      Zn  0.92806401  0.74406107  0.05212016     1.55700
O215        O  0.96958951  0.72833970  0.09061555    -0.80700
Cd216      Cd  0.96933617  0.75388855  0.03669785     1.59700
Cd217      Cd  0.96261808  0.78289757  0.07407752     1.59600
O218        O  0.98877384  0.78041163  0.02239086    -0.80700
O219        O  0.95353075  0.75579005  0.06532228    -1.91200
Cd220      Cd  0.95416495  0.74176973  0.09787184     1.59900
O221        O  0.98610119  0.80018049  0.05013802    -0.80700
O222        O  0.92679602  0.72279328  0.11105527    -0.79300
C223        C  0.92692087  0.78029814  0.04952353     0.83200
C224        C  0.93490180  0.72567685  0.00420661     0.82900
O225        O  0.90991731  0.72773088  0.08046882    -0.78300
C226        C  0.98111932  0.73046917  0.07187745     0.83700
O227        O  0.92129716  0.76348168  0.04200972    -0.78400
C228        C  0.99411172  0.79709399  0.03043814     0.83800
C229        C  0.97196784  0.77795473  0.13318039     0.84100
O230        O  0.97049661  0.78819461  0.11490615    -0.80800
O231        O  0.06607333  0.58691482  0.15121643    -0.78300
C232        C  0.05630144  0.57226959  0.07022804     0.82700
O233        O  0.12821254  0.60550256  0.10790604    -0.79400
O234        O  0.09637878  0.62620358  0.04036810    -0.80900
O235        O  0.07662874  0.64428094  0.11854524    -0.80700
O236        O  0.07572017  0.61597123  0.16532198    -0.79300
Zn237      Zn  0.08180527  0.59039997  0.11860533     1.55700
O238        O  0.06521099  0.63136125  0.07855889    -0.80700
Cd239      Cd  0.09120072  0.63162938  0.13258861     1.59700
Cd240      Cd  0.12045847  0.62528605  0.09529464     1.59600
O241        O  0.11756052  0.65257667  0.14408121    -0.80700
O242        O  0.09313260  0.61562901  0.10454642    -1.91200
Cd243      Cd  0.07825923  0.61540195  0.07251625     1.59900
O244        O  0.13769292  0.65025407  0.11668005    -0.80700
O245        O  0.05872464  0.58791490  0.06126278    -0.79300
C246        C  0.11902585  0.59086805  0.12280110     0.83200
C247        C  0.06547865  0.59816318  0.16809461     0.82900
O248        O  0.06484167  0.57153628  0.09125071    -0.78300
C249        C  0.06664178  0.64227940  0.09776164     0.83700
O250        O  0.10180840  0.58457320  0.12884905    -0.78400
C251        C  0.13425884  0.65861608  0.13550809     0.83800
C252        C  0.11348847  0.63111001  0.03541008     0.84100
O253        O  0.12461468  0.63125925  0.05370442    -0.80800
O254        O  0.93981104  0.51830007  0.35840236    -0.78300
C255        C  0.95388942  0.52053487  0.44125082     0.82700
O256        O  0.87986867  0.47686620  0.40467248    -0.79400
O257        O  0.90974685  0.52998161  0.46818114    -0.80900
O258        O  0.93029039  0.56818524  0.38953486    -0.80700
O259        O  0.93321224  0.54014795  0.34489580    -0.79300
Zn260      Zn  0.92662821  0.50876914  0.39381743     1.55700
O261        O  0.94074783  0.56631261  0.43021897    -0.80700
Cd262      Cd  0.91676241  0.54047931  0.37592389     1.59700
Cd263      Cd  0.88684814  0.50470265  0.41331175     1.59600
O264        O  0.89041423  0.53324806  0.36095775    -0.80700
O265        O  0.91447741  0.52253518  0.40495200    -1.91200
Cd266      Cd  0.92843369  0.53756221  0.43709175     1.59900
O267        O  0.86982869  0.51060380  0.38834937    -0.80700
O268        O  0.94918522  0.53205413  0.45012434    -0.79300
C269        C  0.89022092  0.47062075  0.39576411     0.83200
C270        C  0.94146168  0.53073583  0.34147889     0.82900
O271        O  0.94614594  0.51077329  0.42031187    -0.78300
C272        C  0.93972057  0.57599916  0.41083475     0.83700
O273        O  0.90767858  0.48146121  0.39085574    -0.78400
C274        C  0.87349255  0.52172227  0.36826891     0.83800
C275        C  0.89234566  0.51826424  0.47254299     0.84100
O276        O  0.88135208  0.50740617  0.45405317    -0.80800
O277        O  0.76887047  0.60722241  0.25766123    -0.78300
C278        C  0.74061874  0.60291889  0.33262902     0.82700
O279        O  0.73549776  0.54190518  0.26788196    -0.79400
O280        O  0.68872097  0.55000660  0.30987057    -0.80900
O281        O  0.70790106  0.60323678  0.24321026    -0.80700
O282        O  0.75243233  0.61277450  0.22717149    -0.79300
Zn283      Zn  0.74974234  0.58768890  0.28274306     1.55700
O284        O  0.69214249  0.58833858  0.28034723    -0.80700
Cd285      Cd  0.72509431  0.59175518  0.23695450     1.59700
Cd286      Cd  0.71503189  0.54915902  0.25755768     1.59600
O287        O  0.71488427  0.57446489  0.20396843    -0.80700
O288        O  0.72450208  0.57618365  0.26826440    -1.91200
Cd289      Cd  0.70749977  0.57688626  0.29607602     1.59900
O290        O  0.70807299  0.54547037  0.21604226    -0.80700
O291        O  0.72294403  0.59428256  0.32776409    -0.79300
C292        C  0.75098435  0.55128238  0.28097430     0.83200
C293        C  0.76819042  0.61619776  0.23713353     0.82900
O294        O  0.75200607  0.60107419  0.31745743    -0.78300
C295        C  0.69495914  0.59932996  0.26046885     0.83700
O296        O  0.75706691  0.56823606  0.28821928    -0.78400
C297        C  0.70894239  0.55724986  0.19825992     0.83800
C298        C  0.68330308  0.53356878  0.30072051     0.84100
O299        O  0.69109062  0.53105881  0.28021488    -0.80800
O300        O  0.82698043  0.72750227  0.57591572    -0.78300
C301        C  0.79956464  0.73070063  0.50130325     0.82700
O302        O  0.85956987  0.79155985  0.56170281    -0.79400
O303        O  0.80148471  0.78411153  0.52579321    -0.80900
O304        O  0.77010940  0.73033067  0.59163081    -0.80700
O305        O  0.80636635  0.72339116  0.60762528    -0.79300
Zn306      Zn  0.82578058  0.74586812  0.54989970     1.55700
O307        O  0.76719871  0.74382480  0.55433718    -0.80700
Cd308      Cd  0.79918480  0.74333849  0.59682757     1.59700
Cd309      Cd  0.83223181  0.78519162  0.57377263     1.59600
O310        O  0.80710409  0.76139905  0.62875124    -0.80700
O311        O  0.81317513  0.75815984  0.56458708    -1.91200
Cd312      Cd  0.79423240  0.75719763  0.53817222     1.59900
O313        O  0.83030918  0.78974395  0.61523697    -0.80700
O314        O  0.79201588  0.74070291  0.50541702    -0.79300
C315        C  0.86438323  0.78168777  0.54762062     0.83200
C316        C  0.81829064  0.71961593  0.59758023     0.82900
O317        O  0.81230311  0.73147340  0.51686543    -0.78300
C318        C  0.75991827  0.73275106  0.57444193     0.83700
O319        O  0.85240971  0.76480281  0.54103570    -0.78400
C320        C  0.81929385  0.77858963  0.63352970     0.83800
C321        C  0.81405459  0.80061234  0.53333288     0.84100
O322        O  0.82617141  0.80317433  0.55155769    -0.80800
O323        O  0.72998938  0.81915369  0.91641225    -0.78300
C324        C  0.73885567  0.80171840  0.99462844     0.82700
O325        O  0.79594863  0.85604421  0.92561692    -0.79400
O326        O  0.79023821  0.80004570  0.96821944    -0.80900
O327        O  0.73591593  0.76481565  0.90520478    -0.80700
O328        O  0.72764507  0.79974750  0.88383340    -0.79300
Zn329      Zn  0.75059533  0.82247959  0.94103344     1.55700
O330        O  0.74813686  0.76454320  0.94526932    -0.80700
Cd331      Cd  0.74838462  0.79362761  0.89622675     1.59700
Cd332      Cd  0.78963446  0.82835335  0.91748098     1.59600
O333        O  0.76671136  0.80015980  0.86416022    -0.80700
O334        O  0.76289114  0.80937373  0.92800908    -1.91200
Cd335      Cd  0.76277759  0.79252507  0.95742033     1.59900
O336        O  0.79399478  0.82526615  0.87672780    -0.80700
O337        O  0.74791928  0.79314500  0.99073249    -0.79300
C338        C  0.78538025  0.86167920  0.93560693     0.83200
C339        C  0.72244168  0.81037437  0.89475020     0.82900
O340        O  0.73901090  0.81329534  0.97737757    -0.78300
C341        C  0.73769928  0.75587377  0.92508355     0.83700
O342        O  0.76841078  0.85018122  0.94235504    -0.78400
C343        C  0.78367805  0.81302996  0.85909316     0.83800
C344        C  0.80639741  0.81214335  0.95881792     0.84100
O345        O  0.80820020  0.82339743  0.93970681    -0.80800
O346        O  0.62005159  0.76191286  0.25132033    -0.78300
C347        C  0.61756219  0.73498587  0.17365303     0.82700
O348        O  0.55623908  0.73283704  0.23229400    -0.93800
O349        O  0.56340916  0.68210452  0.19588021    -0.80900
O350        O  0.61349090  0.70128965  0.26557083    -0.80700
O351        O  0.61966088  0.74357624  0.28454400    -0.79300
Zn352      Zn  0.60221144  0.74416481  0.22338060     1.55700
O353        O  0.60267539  0.68752015  0.22580856    -0.80700
Cd354      Cd  0.60038714  0.71702174  0.27030701     1.59700
Cd355      Cd  0.56082987  0.71057140  0.24318506     1.59600
O356        O  0.58031233  0.70477890  0.29983279    -0.80700
O357        O  0.58816492  0.71849062  0.23641402    -1.91200
Cd358      Cd  0.59005583  0.70173158  0.20933133     1.59900
O359        O  0.55386411  0.70265967  0.28392793    -0.80700
O360        O  0.60722815  0.71721493  0.17721455    -0.79300
C361        C  0.56758134  0.74869780  0.22115205     0.83200
C362        C  0.62543670  0.75989047  0.27451492     0.82900
O363        O  0.61710802  0.74662992  0.18996525    -0.78300
C364        C  0.61215953  0.68984428  0.24731181     0.83700
O365        O  0.58458501  0.75347925  0.21596071    -0.78400
C366        C  0.56325206  0.70064684  0.30301256     0.83800
C367        C  0.54660244  0.67774142  0.20199301     0.84100
O368        O  0.54325786  0.68696022  0.21956380    -0.80800
O369        O  0.51939729  0.57494545  0.58873832    -0.78300
C370        C  0.54511435  0.60416511  0.66327124     0.82700
O371        O  0.48585347  0.60540024  0.60015799    -0.79400
O372        O  0.54386105  0.65555830  0.63889560    -0.80900
O373        O  0.57519816  0.63367451  0.57260390    -0.80700
O374        O  0.53703042  0.59111194  0.55380323    -0.79300
Zn375      Zn  0.51949383  0.59372094  0.61423388     1.55700
O376        O  0.57756331  0.65092896  0.60840900    -0.80700
Cd377      Cd  0.54598255  0.61854727  0.56653668     1.59700
Cd378      Cd  0.51337287  0.62715692  0.59042862     1.59600
O379        O  0.54055856  0.63254935  0.53661890    -0.80700
O380        O  0.53208376  0.61875589  0.59916698    -1.91200
Cd381      Cd  0.55102685  0.63634943  0.62550717     1.59900
O382        O  0.51638253  0.63582848  0.54981640    -0.80700
O383        O  0.55355860  0.62174627  0.65783966    -0.79300
C384        C  0.48068476  0.59012702  0.61335349     0.83200
C385        C  0.52640902  0.57546662  0.56578839     0.82900
O386        O  0.53177587  0.59214432  0.64846970    -0.78300
C387        C  0.58506575  0.64709916  0.58893171     0.83700
O388        O  0.49248880  0.58523934  0.62056365    -0.78400
C389        C  0.52883102  0.63812532  0.53244903     0.83800
C390        C  0.53138032  0.65972273  0.63231880     0.84100
O391        O  0.51905193  0.65058444  0.61410669    -0.80800
O392        O  0.57605759  0.51165328  0.92118971    -0.78300
C393        C  0.60045746  0.53750528  0.84206595     0.82700
O394        O  0.60696481  0.48089754  0.90050817    -0.79400
O395        O  0.65461439  0.53704646  0.86069032    -0.80900
O396        O  0.63725575  0.57081474  0.92826178    -0.80700
O397        O  0.59447219  0.53419193  0.94999777    -0.79300
Zn398      Zn  0.59366803  0.51343550  0.89186827     1.55700
O399        O  0.64919811  0.57188315  0.88768501    -0.80700
Cd400      Cd  0.62126052  0.54182138  0.93602352     1.59700
Cd401      Cd  0.62782009  0.50821505  0.91245509     1.59600
O402        O  0.63361310  0.53496578  0.96690287    -0.80700
O403        O  0.61950236  0.52682641  0.90369215    -1.91200
Cd404      Cd  0.63517489  0.54423904  0.87421226     1.59900
O405        O  0.63525820  0.50998977  0.95343493    -0.80700
O406        O  0.61829429  0.54444564  0.84299682    -0.79300
C407        C  0.59245272  0.47609540  0.88569458     0.83200
C408        C  0.57817072  0.52116370  0.94238770     0.82900
O409        O  0.58969267  0.52621330  0.86017296    -0.78300
C410        C  0.64777817  0.58014212  0.90843283     0.83700
O411        O  0.58671000  0.48750492  0.88029914    -0.78400
C412        C  0.63746488  0.52199341  0.97148936     0.83800
C413        C  0.65963321  0.52556293  0.86933754     0.84100
O414        O  0.65143199  0.51455512  0.88929221    -0.80800
O415        O  0.48040185  0.41409309  0.35731390    -0.78300
C416        C  0.48000397  0.42866939  0.44013708     0.82700
O417        O  0.52447147  0.40074779  0.40599198    -0.79400
O418        O  0.47134394  0.37440038  0.47124226    -0.80900
O419        O  0.43227395  0.35600294  0.39402845    -0.80700
O420        O  0.45899633  0.38482801  0.34564559    -0.79300
Zn421      Zn  0.49045878  0.41216010  0.39313562     1.55700
O422        O  0.43480339  0.36878234  0.43436177    -0.80700
Cd423      Cd  0.45949898  0.36958405  0.37896625     1.59700
Cd424      Cd  0.49693519  0.37884044  0.41540665     1.59600
O425        O  0.46596024  0.34922875  0.36749388    -0.80700
O426        O  0.47782778  0.38669170  0.40684845    -1.91200
Cd427      Cd  0.46374991  0.38591679  0.44006242     1.59900
O428        O  0.49108288  0.35531459  0.39245828    -0.80700
O429        O  0.46995124  0.41280810  0.45188245    -0.79300
C430        C  0.52974239  0.41697151  0.39572616     0.83200
C431        C  0.46804967  0.40253421  0.34095488     0.82900
O432        O  0.48800449  0.42983358  0.41781875    -0.78300
C433        C  0.42482534  0.35760599  0.41553969     0.83700
O434        O  0.51793676  0.42211037  0.38988983    -0.78400
C435        C  0.47858626  0.34541680  0.37485245     0.83800
C436        C  0.48359056  0.36942475  0.47487033     0.84100
O437        O  0.49483408  0.37080511  0.45610893    -0.80800
O438        O  0.41598375  0.47289842  0.14699679    -0.78300
C439        C  0.42984331  0.47456974  0.06599929     0.82700
O440        O  0.40366813  0.52026145  0.10390682    -0.79400
O441        O  0.37983726  0.46929716  0.03491104    -0.80900
O442        O  0.35567483  0.42949391  0.11370489    -0.80700
O443        O  0.38638344  0.45452685  0.16056068    -0.79300
Zn444      Zn  0.41447061  0.48573492  0.11338297     1.55700
O445        O  0.36776192  0.43029725  0.07336029    -0.80700
Cd446      Cd  0.37151593  0.45670402  0.12821747     1.59700
Cd447      Cd  0.38208742  0.49371653  0.09069943     1.59600
O448        O  0.35331991  0.46555687  0.14078407    -0.80700
O449        O  0.38892995  0.47399652  0.09993975    -1.91200
Cd450      Cd  0.38720521  0.45892349  0.06766720     1.59900
O451        O  0.35792204  0.48838211  0.11187190    -0.80700
O452        O  0.41338229  0.46275083  0.05732795    -0.79300
C453        C  0.41890070  0.52480051  0.11678974     0.83200
C454        C  0.40405689  0.46124207  0.16377059     0.82900
O455        O  0.43214020  0.48471867  0.08650955    -0.78300
C456        C  0.35638766  0.42120509  0.09253647     0.83700
O457        O  0.42389902  0.51275166  0.12178756    -0.78400
C458        C  0.34909765  0.47751476  0.13170406     0.83800
C459        C  0.37707159  0.48297258  0.03020417     0.84100
O460        O  0.37739321  0.49375259  0.04892539    -0.80800
O461        O  0.19880144  0.27479741  0.47895771    -0.78300
C462        C  0.19247619  0.28500460  0.39842546     0.82700
O463        O  0.15074688  0.21454773  0.43356797    -0.79400
O464        O  0.20230950  0.24273915  0.36721599    -0.80900
O465        O  0.24221739  0.25991429  0.44296456    -0.80700
O466        O  0.21803306  0.26465532  0.49204648    -0.79300
Zn467      Zn  0.18490145  0.25929113  0.44679753     1.55700
O468        O  0.23986632  0.27227814  0.40406079    -0.80700
Cd469      Cd  0.21534436  0.24741730  0.45951512     1.59700
Cd470      Cd  0.17773293  0.21974400  0.42258104     1.59600
O471        O  0.20723886  0.22014959  0.47207084    -0.80700
O472        O  0.19705494  0.24661860  0.43203664    -1.91200
Cd473      Cd  0.21096102  0.26086206  0.39922952     1.59900
O474        O  0.18316306  0.20131256  0.44513119    -0.80700
O475        O  0.20440226  0.28131805  0.38812155    -0.79300
C476        C  0.14611344  0.22415256  0.44854945     0.83200
C477        C  0.21116590  0.27538810  0.49509319     0.82900
O478        O  0.18392120  0.27712158  0.42014728    -0.78300
C479        C  0.24970933  0.26983488  0.42186665     0.83700
O480        O  0.15821797  0.24066845  0.45648183    -0.78400
C481        C  0.19483290  0.20368761  0.46400145     0.83800
C482        C  0.18981162  0.22563818  0.36256078     0.84100
O483        O  0.17897752  0.21469887  0.38113308    -0.80800
O484        O  0.26090441  0.39131076  0.69897919    -0.78300
C485        C  0.25027848  0.38666630  0.78285768     0.82700
O486        O  0.27577415  0.45420308  0.73560932    -0.79400
O487        O  0.30765335  0.43256671  0.80259811    -0.80900
O488        O  0.32068445  0.40745857  0.72855848    -0.80700
O489        O  0.28969810  0.40212102  0.68247689    -0.79300
Zn490      Zn  0.26444705  0.40823345  0.73013790     1.55700
O491        O  0.30752834  0.39699305  0.76881351    -0.80700
Cd492      Cd  0.30623584  0.42011668  0.71306781     1.59700
Cd493      Cd  0.29822819  0.44992339  0.74634546     1.59600
O494        O  0.32517875  0.44628162  0.69746119    -0.80700
O495        O  0.29039678  0.42257225  0.74118547    -1.91200
Cd496      Cd  0.29299438  0.41118677  0.77527831     1.59900
O497        O  0.32104739  0.46694969  0.72095266    -0.80700
O498        O  0.26681454  0.39245369  0.79214707    -0.79300
C499        C  0.25985053  0.44265067  0.72484299     0.83200
C500        C  0.27192227  0.39074977  0.68160513     0.82900
O501        O  0.24782841  0.39182732  0.75976592    -0.78300
C502        C  0.31831356  0.39776458  0.74986208     0.83700
O503        O  0.25493392  0.42548631  0.72081756    -0.78400
C504        C  0.32958281  0.46319163  0.70275803     0.83800
C505        C  0.31125773  0.44952302  0.80494979     0.84100
O506        O  0.30724001  0.45781265  0.78638808    -0.80800
O507        O  0.27773337  0.19422100  0.02760395    -0.78300
C508        C  0.28521502  0.19125629  0.11143252     0.82700
O509        O  0.21592104  0.14691140  0.07048606    -0.79400
O510        O  0.24101857  0.20241234  0.13342132    -0.80900
O511        O  0.26111109  0.23731581  0.05323321    -0.80700
O512        O  0.26523373  0.21015061  0.00932429    -0.79300
Zn513      Zn  0.26159834  0.18146077  0.06019328     1.55700
O514        O  0.27265608  0.23768582  0.09412376    -0.80700
Cd515      Cd  0.24819438  0.20953025  0.04070355     1.59700
Cd516      Cd  0.22073499  0.17384985  0.08025617     1.59600
O517        O  0.22095696  0.20094561  0.02737807    -0.80700
O518        O  0.24763232  0.19329247  0.07115386    -1.91200
Cd519      Cd  0.26053436  0.20909934  0.10329358     1.59900
O520        O  0.20224062  0.17850254  0.05658196    -0.80700
O521        O  0.28039919  0.20297614  0.11919601    -0.79300
C522        C  0.22639643  0.14235173  0.05746528     0.83200
C523        C  0.27713138  0.20453739  0.00884752     0.82900
O524        O  0.27876662  0.18204860  0.08966954    -0.78300
C525        C  0.27082048  0.24624947  0.07382195     0.83700
O526        O  0.24342868  0.15443772  0.05153752    -0.78400
C527        C  0.20454079  0.18915469  0.03634939     0.83800
C528        C  0.22438011  0.18884893  0.13833960     0.84100
O529        O  0.21495771  0.17596554  0.12096605    -0.80800
O530        O  0.40083356  0.25282681  0.81692669    -0.78300
C531        C  0.38814354  0.23916082  0.73436611     0.82700
O532        O  0.46075161  0.26856285  0.76954471    -0.79400
O533        O  0.43131051  0.29216668  0.70482931    -0.80900
O534        O  0.41530239  0.31292078  0.78369906    -0.80700
O535        O  0.41158371  0.28220614  0.83084748    -0.79300
Zn536      Zn  0.41485457  0.25545342  0.78230350     1.55700
O537        O  0.40243696  0.29954334  0.74431892    -0.80700
Cd538      Cd  0.42767649  0.29790307  0.79802300     1.59700
Cd539      Cd  0.45484819  0.28982006  0.75899992     1.59600
O540        O  0.45494175  0.31700240  0.81044773    -0.80700
O541        O  0.42785622  0.28118502  0.76918592    -1.91200
Cd542      Cd  0.41344225  0.28207730  0.73732873     1.59900
O543        O  0.47356145  0.31376308  0.78113781    -0.80700
O544        O  0.39226711  0.25538076  0.72548034    -0.79300
C545        C  0.45060318  0.25282211  0.78170663     0.83200
C546        C  0.40116741  0.26441800  0.83413464     0.82900
O547        O  0.39603068  0.23743659  0.75542972    -0.78300
C548        C  0.40526151  0.31125581  0.76304784     0.83700
O549        O  0.43352623  0.24705028  0.78809599    -0.78400
C550        C  0.47130406  0.32203025  0.80124086     0.83800
C551        C  0.44825036  0.29665544  0.69952823     0.84100
O552        O  0.45932675  0.29644930  0.71757410    -0.80800
O553        O  0.52956010  0.93532802  0.14925963    -0.78300
C554        C  0.53148006  0.95015021  0.06731199     0.82700
O555        O  0.48698121  0.87605386  0.10007708    -0.79400
O556        O  0.54318691  0.90757290  0.03986583    -0.80900
O557        O  0.57777922  0.92294527  0.11887123    -0.80700
O558        O  0.55026662  0.92736311  0.16358695    -0.79300
Zn559      Zn  0.51963559  0.92223149  0.11400127     1.55700
O560        O  0.57772386  0.93685926  0.08025950    -0.80700
Cd561      Cd  0.55004124  0.91074535  0.13202977     1.59700
Cd562      Cd  0.51498509  0.88301195  0.09151809     1.59600
O563        O  0.54162951  0.88363882  0.14526867    -0.80700
O564        O  0.53314909  0.91007523  0.10237420    -1.91200
Cd565      Cd  0.54924383  0.92532361  0.07173726     1.59900
O566        O  0.51999683  0.86484220  0.11528772    -0.80700
O567        O  0.54371201  0.94622176  0.05893313    -0.79300
C568        C  0.48118311  0.88604639  0.11163600     0.83200
C569        C  0.54150353  0.93634069  0.16659312     0.82900
O570        O  0.52126496  0.94171146  0.08766218    -0.78300
C571        C  0.58645543  0.93353774  0.09881432     0.83700
O572        O  0.49251634  0.90314193  0.11798385    -0.78400
C573        C  0.53033333  0.86722752  0.13593762     0.83800
C574        C  0.53148376  0.89050187  0.03368808     0.84100
O575        O  0.51918022  0.87903684  0.05053143    -0.80800
O576        O  0.59333703  0.06111169  0.35720022    -0.78300
C577        C  0.58035693  0.05386722  0.43984702     0.82700
O578        O  0.60885464  0.12338511  0.39842625    -0.79400
O579        O  0.63496508  0.09747138  0.46550668    -0.80900
O580        O  0.65441705  0.07814531  0.39155005    -0.80700
O581        O  0.62275277  0.07027938  0.34502617    -0.79300
Zn582      Zn  0.59626472  0.07764745  0.38896813     1.55700
O583        O  0.63981693  0.06545590  0.43025519    -0.80700
Cd584      Cd  0.63860086  0.08892233  0.37504853     1.59700
Cd585      Cd  0.63061769  0.11814869  0.40920847     1.59600
O586        O  0.65684291  0.11500366  0.35900949    -0.80700
O587        O  0.62198676  0.09081486  0.40212564    -1.91200
Cd588      Cd  0.62331988  0.07786164  0.43529305     1.59900
O589        O  0.65376790  0.13550039  0.38451508    -0.80700
O590        O  0.59663365  0.05810604  0.44863996    -0.79300
C591        C  0.59377603  0.11333985  0.38473779     0.83200
C592        C  0.60498231  0.05984348  0.34178356     0.82900
O593        O  0.57838397  0.06075329  0.41785169    -0.78300
C594        C  0.65210471  0.06816519  0.41248299     0.83700
O595        O  0.58835699  0.09630959  0.37854896    -0.78400
C596        C  0.66176829  0.13187873  0.36537146     0.83800
C597        C  0.63984977  0.11471302  0.46893823     0.84100
O598        O  0.63880073  0.12471756  0.44988530    -0.80800
O599        O  0.81230066  0.07739022  0.02144229    -0.78300
C600        C  0.81953120  0.09408736  0.10252322     0.82700
O601        O  0.85877055  0.06319618  0.06741732    -0.79400
O602        O  0.80768455  0.03974543  0.13341331    -0.80900
O603        O  0.76746680  0.01863139  0.05960542    -0.80700
O604        O  0.79121870  0.04773111  0.01097162    -0.79300
Zn605      Zn  0.82611213  0.07569003  0.05399194     1.55700
O606        O  0.77104506  0.03528373  0.09667213    -0.80700
Cd607      Cd  0.79410827  0.03280566  0.04251564     1.59700
Cd608      Cd  0.83154262  0.04187038  0.07741766     1.59600
O609        O  0.80123109  0.01355351  0.02836840    -0.80700
O610        O  0.81321282  0.05049890  0.06886439    -1.91200
Cd611      Cd  0.80005585  0.05092940  0.10194459     1.59900
O612        O  0.82567335  0.01853408  0.05407001    -0.80700
O613        O  0.80788156  0.07819389  0.11300832    -0.79300
C614        C  0.86400934  0.07772091  0.05250827     0.83200
C615        C  0.79888770  0.06540838  0.00666126     0.82900
O616        O  0.82783774  0.09509393  0.08049052    -0.78300
C617        C  0.76058370  0.02260684  0.07973838     0.83700
O618        O  0.85253045  0.08287582  0.04457096    -0.78400
C619        C  0.81370350  0.00947642  0.03547176     0.83800
C620        C  0.81958055  0.03431870  0.13704045     0.84100
O621        O  0.82997683  0.03437267  0.11798934    -0.80800
O622        O  0.75045292  0.14232232  0.81524557    -0.78300
C623        C  0.76336278  0.14190037  0.73302374     0.82700
O624        O  0.73861936  0.18839783  0.76560960    -0.79400
O625        O  0.71027505  0.13193688  0.70488287    -0.80900
O626        O  0.68920358  0.09766604  0.78504884    -0.80700
O627        O  0.72120946  0.12419136  0.83044851    -0.79300
Zn628      Zn  0.74832310  0.15351513  0.78047028     1.55700
O629        O  0.70261138  0.09686737  0.74657587    -0.80700
Cd630      Cd  0.70559886  0.12540635  0.79787211     1.59700
Cd631      Cd  0.71596581  0.16097441  0.75609806     1.59600
O632        O  0.68730613  0.13478664  0.80886375    -0.80700
O633        O  0.72264869  0.14151965  0.76809331    -1.91200
Cd634      Cd  0.72076653  0.12507050  0.73762291     1.59900
O635        O  0.69202703  0.15631381  0.77739586    -0.80700
O636        O  0.74688350  0.12977634  0.72482835    -0.79300
C637        C  0.75419225  0.19309450  0.77774506     0.83200
C638        C  0.73901573  0.13125958  0.83299011     0.82900
O639        O  0.76563440  0.15184290  0.75372575    -0.78300
C640        C  0.69056473  0.08859372  0.76530306     0.83700
O641        O  0.75837386  0.18081707  0.78508698    -0.78400
C642        C  0.68297782  0.14615314  0.79772158     0.83800
C643        C  0.70711674  0.14500890  0.69786200     0.84100
O644        O  0.70912800  0.15780723  0.71439658    -0.80800
O645        O  0.73702519  0.92294558  0.48304185    -0.78300
C646        C  0.72221411  0.90859830  0.39992636     0.82700
O647        O  0.79491352  0.93835350  0.43184115    -0.79400
O648        O  0.76466915  0.96327161  0.37071209    -0.80900
O649        O  0.74639458  0.98109582  0.44883424    -0.80700
O650        O  0.74604677  0.95221989  0.49579093    -0.79300
Zn651      Zn  0.74934824  0.92528693  0.44729607     1.55700
O652        O  0.73357095  0.96661034  0.41012919    -0.80700
Cd653      Cd  0.76106609  0.96798024  0.46236103     1.59700
Cd654      Cd  0.78845188  0.95957443  0.42319149     1.59600
O655        O  0.78845062  0.98863982  0.47276198    -0.80700
O656        O  0.76163227  0.95096197  0.43413515    -1.91200
Cd657      Cd  0.74685034  0.95141817  0.40263734     1.59900
O658        O  0.80671694  0.98374023  0.44477191    -0.80700
O659        O  0.72692568  0.92469532  0.39003193    -0.79300
C660        C  0.78456661  0.92207355  0.44246071     0.83200
C661        C  0.73675489  0.93442747  0.49986959     0.82900
O662        O  0.72952563  0.90705891  0.42171742    -0.78300
C663        C  0.73551651  0.97809165  0.42869021     0.83700
O664        O  0.76770146  0.91632956  0.44981816    -0.78400
C665        C  0.80467838  0.99320679  0.46338425     0.83800
C666        C  0.78152063  0.96784759  0.36475242     0.84100
O667        O  0.79256734  0.96676787  0.38198453    -0.80800
O668        O  0.61068055  0.86393598  0.68910347    -0.78300
C669        C  0.61965939  0.85478430  0.76926598     0.82700
O670        O  0.54834331  0.81681751  0.73080173    -0.79400
O671        O  0.57804986  0.86633829  0.80117373    -0.80900
O672        O  0.59714321  0.90820486  0.72982228    -0.80700
O673        O  0.60375030  0.88623505  0.68004787    -0.79300
Zn674      Zn  0.59459697  0.84961721  0.72081815     1.55700
O675        O  0.61024116  0.90422384  0.76682818    -0.80700
Cd676      Cd  0.58517243  0.88232194  0.71089294     1.59700
Cd677      Cd  0.55537010  0.84402665  0.74394251     1.59600
O678        O  0.55900462  0.87589620  0.69584621    -0.80700
O679        O  0.58283813  0.86243166  0.73644061    -1.91200
Cd680      Cd  0.59700679  0.87494743  0.77000849     1.59900
O681        O  0.53865634  0.85182725  0.72159333    -0.80700
O682        O  0.61633742  0.86667165  0.78056113    -0.79300
C683        C  0.55797149  0.81177780  0.71658520     0.83200
C684        C  0.61310644  0.87807844  0.67525891     0.82900
O685        O  0.61183584  0.84712677  0.74705845    -0.78300
C686        C  0.60768299  0.91481291  0.75054428     0.83700
O687        O  0.57509141  0.82341357  0.71046168    -0.78400
C688        C  0.54214568  0.86403927  0.70306270     0.83800
C689        C  0.56056157  0.85446410  0.80467594     0.84100
O690        O  0.54985662  0.84450847  0.78529251    -0.80800
O691        O  0.18486926  0.90735577  0.91872696    -0.78300
C692        C  0.21052832  0.93493604  0.99696801     0.82700
O693        O  0.15237642  0.93626424  0.93366297    -0.79400
O694        O  0.20916322  0.98781595  0.97220541    -0.80900
O695        O  0.24196069  0.96554434  0.91011908    -0.80700
O696        O  0.20414545  0.92520037  0.88607943    -0.79300
Zn697      Zn  0.18631243  0.92551241  0.94681253     1.55700
O698        O  0.24403836  0.98153839  0.94733714    -0.80700
Cd699      Cd  0.21337811  0.95202647  0.90111157     1.59700
Cd700      Cd  0.17955112  0.95801214  0.92290623     1.59600
O701        O  0.20929701  0.96735922  0.87167770    -0.80700
O702        O  0.19871448  0.95083215  0.93324594    -1.91200
Cd703      Cd  0.21638537  0.96796479  0.96141207     1.59900
O704        O  0.18230153  0.96613585  0.88217961    -0.80700
O705        O  0.21660913  0.95257001  0.99473883    -0.79300
C706        C  0.14794311  0.92237855  0.94964303     0.83200
C707        C  0.19256051  0.90902286  0.89591880     0.82900
O708        O  0.19975851  0.92326356  0.97923689    -0.78300
C709        C  0.25172953  0.97762334  0.92815237     0.83700
O710        O  0.15993770  0.91784680  0.95729946    -0.78400
C711        C  0.19614930  0.97079910  0.86619883     0.83800
C712        C  0.19684350  0.99160904  0.96330098     0.84100
O713        O  0.18506475  0.98178823  0.94488017    -0.80800
O714        O  0.24775556  0.85097112  0.25300095    -0.78300
C715        C  0.27293679  0.87458531  0.17326193     0.82700
O716        O  0.27696831  0.81733363  0.23236261    -0.79400
O717        O  0.32606507  0.87356394  0.19354233    -0.80900
O718        O  0.30892085  0.90711115  0.26069785    -0.80700
O719        O  0.26645624  0.87099522  0.28421113    -0.79300
Zn720      Zn  0.26496838  0.85135087  0.22430344     1.55700
O721        O  0.32095632  0.90812479  0.22021370    -0.80700
Cd722      Cd  0.29295907  0.87827297  0.26875084     1.59700
Cd723      Cd  0.29890135  0.84433995  0.24373045     1.59600
O724        O  0.30630879  0.87168587  0.29831363    -0.80700
O725        O  0.29081361  0.86337689  0.23605853    -1.91200
Cd726      Cd  0.30675448  0.88065368  0.20683851     1.59900
O727        O  0.30683036  0.84614119  0.28452062    -0.80700
O728        O  0.29062520  0.88088862  0.17484043    -0.79300
C729        C  0.26145602  0.81271704  0.22016233     0.83200
C730        C  0.24997932  0.85936046  0.27530023     0.82900
O731        O  0.26166839  0.86389915  0.19145459    -0.78300
C732        C  0.31954720  0.91637055  0.24093333     0.83700
O733        O  0.25630534  0.82469307  0.21561979    -0.78400
C734        C  0.30998484  0.85855110  0.30243193     0.83800
C735        C  0.33084925  0.86168510  0.20092258     0.84100
O736        O  0.32242161  0.85003420  0.22017216    -0.80800
O737        O  0.43285931  0.94548917  0.58492498    -0.78300
C738        C  0.40368268  0.94366897  0.65969445     0.82700
O739        O  0.40285706  0.88186596  0.60439916    -0.79400
O740        O  0.35202893  0.88807602  0.63817896    -0.80900
O741        O  0.36968315  0.93704607  0.56684528    -0.80700
O742        O  0.41504616  0.94867273  0.55399861    -0.79300
Zn743      Zn  0.41421296  0.92758946  0.61230682     1.55700
O744        O  0.35603608  0.92629769  0.60667998    -0.80700
Cd745      Cd  0.38837766  0.92708938  0.56447594     1.59700
Cd746      Cd  0.38141665  0.88690977  0.59051763     1.59600
O747        O  0.38033740  0.90853823  0.53318205    -0.80700
O748        O  0.38885866  0.91394848  0.59797939    -1.91200
Cd749      Cd  0.37112733  0.91498316  0.62425933     1.59900
O750        O  0.37584983  0.88106451  0.54906399    -0.80700
O751        O  0.38598030  0.93306711  0.65573005    -0.79300
C752        C  0.41740310  0.89239313  0.61880339     0.83200
C753        C  0.43121531  0.95310966  0.56346875     0.82900
O754        O  0.41571744  0.94305790  0.64436370    -0.78300
C755        C  0.35764931  0.93502277  0.58463191     0.83700
O756        O  0.42234811  0.90945630  0.62379992    -0.78400
C757        C  0.37624062  0.89155723  0.52963053     0.83800
C758        C  0.34776377  0.87151732  0.63081680     0.84100
O759        O  0.35702810  0.86886908  0.61247237    -0.80800
O760        O  0.49381966  0.06002975  0.92340984    -0.78300
C761        C  0.46901855  0.06055068  0.84458473     0.82700
O762        O  0.52544473  0.12392648  0.90487913    -0.79400
O763        O  0.46841564  0.11297426  0.86357281    -0.80900
O764        O  0.43580975  0.06273871  0.93351196    -0.80700
O765        O  0.47236978  0.05643641  0.95359219    -0.79300
Zn766      Zn  0.49317896  0.07732397  0.89486168     1.55700
O767        O  0.43429234  0.07444775  0.89363402    -0.80700
Cd768      Cd  0.46490708  0.07576291  0.93995446     1.59700
Cd769      Cd  0.49771631  0.11696251  0.91512496     1.59600
O770        O  0.47164507  0.09507297  0.97044030    -0.80700
O771        O  0.47962683  0.08938499  0.90722656    -1.91200
Cd772      Cd  0.46143613  0.08689453  0.87866876     1.59900
O773        O  0.49523568  0.12274187  0.95580186    -0.80700
O774        O  0.46059433  0.06982653  0.84764408    -0.79300
C775        C  0.53098132  0.11430696  0.89166844     0.83200
C776        C  0.48468307  0.05264774  0.94503380     0.82900
O777        O  0.48139870  0.06187833  0.86139497    -0.78300
C778        C  0.42633773  0.06481896  0.91472322     0.83700
O779        O  0.51978689  0.09701509  0.88603443    -0.78400
C780        C  0.48370141  0.11246543  0.97427932     0.83800
C781        C  0.47980040  0.12993581  0.87067414     0.84100
O782        O  0.49122541  0.13381377  0.89043779    -0.80800
O783        O  0.27963048  0.09391296  0.58702659    -0.78300
C784        C  0.27594475  0.07066859  0.50685335     0.82700
O785        O  0.21467916  0.06568745  0.56736044    -0.79400
O786        O  0.22192975  0.01599778  0.52656721    -0.80900
O787        O  0.27100762  0.03164298  0.59553777    -0.80700
O788        O  0.28030654  0.07450536  0.61757891    -0.79300
Zn789      Zn  0.26095108  0.07756760  0.55887508     1.55700
O790        O  0.26160546  0.02080585  0.55402857    -0.80700
Cd791      Cd  0.25962005  0.04867349  0.60222890     1.59700
Cd792      Cd  0.21981526  0.04342416  0.57694922     1.59600
O793        O  0.23975705  0.03610775  0.63173626    -0.80700
O794        O  0.24710058  0.05137531  0.56937364    -1.91200
Cd795      Cd  0.24886890  0.03564964  0.54008910     1.59900
O796        O  0.21317959  0.03449947  0.61751671    -0.80700
O797        O  0.26614366  0.05272612  0.50893907    -0.79300
C798        C  0.22629521  0.08220961  0.55830125     0.83200
C799        C  0.28597931  0.09114988  0.60892095     0.82900
O800        O  0.27508154  0.08135613  0.52448798    -0.78300
C801        C  0.27006120  0.02129729  0.57589567     0.83700
O802        O  0.24351964  0.08742117  0.55415297    -0.78400
C803        C  0.22274004  0.03184870  0.63568169     0.83800
C804        C  0.20526251  0.01126840  0.53419138     0.84100
O805        O  0.20236422  0.02013878  0.55285172    -0.80800
O806        O  0.39482538  0.15412488  0.25717348    -0.78300
C807        C  0.40242534  0.13341297  0.33528836     0.82700
O808        O  0.46040049  0.19000997  0.26828890    -0.79400
O809        O  0.45592492  0.13455740  0.30865308    -0.80900
O810        O  0.40222806  0.09973600  0.24528142    -0.80700
O811        O  0.39152035  0.13310948  0.22668940    -0.79300
Zn812      Zn  0.41482976  0.15613921  0.28283222     1.55700
O813        O  0.41463496  0.09925705  0.28508324    -0.80700
Cd814      Cd  0.41304451  0.12821597  0.23798179     1.59700
Cd815      Cd  0.45447260  0.16265976  0.25816058     1.59600
O816        O  0.43034035  0.13578601  0.20502916    -0.80700
O817        O  0.42782318  0.14376491  0.26944270    -1.91200
Cd818      Cd  0.42832707  0.12693565  0.29843236     1.59900
O819        O  0.45836173  0.16021914  0.21662669    -0.80700
O820        O  0.41296274  0.12635780  0.33192349    -0.79300
C821        C  0.44994266  0.19535032  0.27957843     0.83200
C822        C  0.38690601  0.14456621  0.23613608     0.82900
O823        O  0.40197973  0.14477283  0.31813304    -0.78300
C824        C  0.40461148  0.09077910  0.26449368     0.83700
O825        O  0.43300484  0.18372827  0.28648400    -0.78400
C826        C  0.44718046  0.14842024  0.19912895     0.83800
C827        C  0.47184703  0.14605131  0.29801197     0.84100
O828        O  0.47333452  0.15710135  0.27875769    -0.80800
C829        C  0.28934282  0.07952105  0.48421318    -0.03000
C830        C  0.29771369  0.09898791  0.47919934    -0.05600
C831        C  0.31185808  0.10785074  0.45984726    -0.20700
C832        C  0.31821090  0.09756397  0.44539262     0.25000
C833        C  0.30937854  0.07795853  0.44962578    -0.18300
C834        C  0.29505120  0.06902851  0.46880876    -0.08200
C835        C  0.33375243  0.10768698  0.42569897    -0.18500
C836        C  0.34596566  0.10197197  0.41919388    -0.23300
C837        C  0.36136804  0.11180543  0.39910228     0.27100
C838        C  0.37641395  0.10829669  0.39915493    -0.20100
C839        C  0.39031208  0.11599145  0.37918155    -0.09700
C840        C  0.38944200  0.12737884  0.35866291    -0.10300
C841        C  0.37471041  0.13136428  0.35912053    -0.03200
C842        C  0.36078074  0.12358831  0.37893386    -0.18300
H843        H  0.29355583  0.10747222  0.49057143     0.10800
H844        H  0.31821093  0.12290395  0.45665755     0.10800
H845        H  0.31346719  0.06947692  0.43814798     0.10500
H846        H  0.28883590  0.05400952  0.47211555     0.11600
H847        H  0.33572703  0.12083015  0.41755104     0.11700
H848        H  0.34498232  0.08981020  0.42945428     0.13600
H849        H  0.37720194  0.09923695  0.41438736     0.10100
H850        H  0.40143078  0.11259131  0.37938866     0.12200
H851        H  0.37343730  0.13985652  0.34343132     0.08800
H852        H  0.34921753  0.12626883  0.37757930     0.11600
C853        C  0.45328420  0.14882625  0.17091923    -0.03000
C854        C  0.43948214  0.14165564  0.15058104    -0.05600
C855        C  0.44394878  0.13918503  0.12451490    -0.20700
C856        C  0.46233784  0.14373017  0.11781869     0.25000
C857        C  0.47652203  0.15180574  0.13777537    -0.18300
C858        C  0.47201693  0.15442954  0.16412941    -0.08200
C859        C  0.46516567  0.13803031  0.09058524    -0.18500
C860        C  0.48185580  0.14329237  0.07871563    -0.23300
C861        C  0.48269219  0.13540044  0.05209140     0.27100
C862        C  0.49695458  0.14646553  0.03347488    -0.20100
C863        C  0.49743789  0.13920302  0.00811657    -0.09700
C864        C  0.48383072  0.12058818  0.00109177    -0.10300
C865        C  0.46992208  0.10943776  0.02014411    -0.03200
C866        C  0.46938461  0.11669119  0.04521594    -0.18300
H867        H  0.42496233  0.13739719  0.15501884     0.10800
H868        H  0.43273162  0.13305080  0.10966376     0.10800
H869        H  0.49083716  0.15534234  0.13350772     0.10500
H870        H  0.48292787  0.15990993  0.17943862     0.11600
H871        H  0.45236965  0.12875074  0.07942535     0.11700
H872        H  0.49496046  0.15380187  0.08802876     0.13600
H873        H  0.50751926  0.16085080  0.03837133     0.10100
H874        H  0.50842026  0.14814687  0.99404259     0.12200
H875        H  0.45928460  0.09499306  0.01570090     0.08800
H876        H  0.45858647  0.10748735  0.05933363     0.11600
C877        C  0.34544712  0.94329659  0.57986473    -0.03000
C878        C  0.34659770  0.95281899  0.55569929    -0.05600
C879        C  0.33570133  0.96133030  0.55182715    -0.20700
C880        C  0.32355955  0.96072119  0.57207826     0.25000
C881        C  0.32196307  0.95070000  0.59593417    -0.18300
C882        C  0.33280720  0.94214756  0.59978314    -0.08200
C883        C  0.31277713  0.97060580  0.56756765    -0.18500
C884        C  0.30682050  0.97711815  0.58783089    -0.23300
C885        C  0.29711757  0.98811833  0.58389687     0.27100
C886        C  0.29747294  0.99949981  0.60506560    -0.20100
C887        C  0.28867980  0.01018360  0.60246293    -0.09700
C888        C  0.27913049  0.00965831  0.57862392    -0.10300
C889        C  0.27845552  0.99799543  0.55753621    -0.03200
C890        C  0.28731389  0.98730993  0.56013421    -0.18300
H891        H  0.35607622  0.95388356  0.53983947     0.10800
H892        H  0.33705159  0.96875219  0.53313958     0.10800
H893        H  0.31227338  0.94928915  0.61164775     0.10500
H894        H  0.33138621  0.93475946  0.61852104     0.11600
H895        H  0.31093904  0.97374367  0.54692082     0.11700
H896        H  0.31026334  0.97544158  0.60838940     0.13600
H897        H  0.30476769  0.00028827  0.62366933     0.10100
H898        H  0.28943849  0.01892037  0.61917807     0.12200
H899        H  0.27106948  0.99710496  0.53899123     0.08800
H900        H  0.28620640  0.97829404  0.54364537     0.11600
C901        C  0.41050381  0.95734787  0.68218885    -0.03000
C902        C  0.39771679  0.95952730  0.69820608    -0.05600
C903        C  0.40423698  0.97304401  0.71859328    -0.20700
C904        C  0.42364762  0.98459565  0.72362266     0.25000
C905        C  0.43647932  0.98247332  0.70753937    -0.18300
C906        C  0.42996182  0.96897216  0.68712338    -0.08200
C907        C  0.42985803  0.99910000  0.74506559    -0.18500
C908        C  0.44695805  0.00716753  0.75701538    -0.23300
C909        C  0.45276947  0.02140262  0.77875959     0.27100
C910        C  0.46673731  0.02349115  0.79711865    -0.20100
C911        C  0.47225354  0.03640187  0.81823625    -0.09700
C912        C  0.46400763  0.04764520  0.82132348    -0.10300
C913        C  0.45046771  0.04599370  0.80240393    -0.03200
C914        C  0.44495073  0.03307785  0.78131063    -0.18300
H915        H  0.38265155  0.95094165  0.69480313     0.10800
H916        H  0.39404800  0.97449233  0.73049031     0.10800
H917        H  0.45155598  0.99145638  0.71012196     0.10500
H918        H  0.44021881  0.96782877  0.67495797     0.11600
H919        H  0.41950985  0.00257007  0.75207466     0.11700
H920        H  0.45672716  0.00247100  0.75193694     0.13600
H921        H  0.47316086  0.01485116  0.79541045     0.10100
H922        H  0.48279770  0.03737457  0.83235526     0.12200
H923        H  0.44400164  0.05459632  0.80398120     0.08800
H924        H  0.43468295  0.03242684  0.76697666     0.11600
C925        C  0.31815850  0.85808687  0.32900392    -0.03000
C926        C  0.31930883  0.84237939  0.33767542    -0.05600
C927        C  0.32655261  0.84218783  0.36329664    -0.20700
C928        C  0.33314064  0.85782736  0.38041019     0.25000
C929        C  0.33194357  0.87347308  0.37167903    -0.18300
C930        C  0.32458521  0.87359863  0.34638796    -0.08200
C931        C  0.34051013  0.85752652  0.40775138    -0.18500
C932        C  0.35459283  0.87337699  0.41885812    -0.23300
C933        C  0.36124344  0.87552496  0.44725788     0.27100
C934        C  0.37753965  0.89251970  0.45412228    -0.20100
C935        C  0.38289110  0.89702283  0.48091599    -0.09700
C936        C  0.37219867  0.88457771  0.50166636    -0.10300
C937        C  0.35655890  0.86697113  0.49499479    -0.03200
C938        C  0.35100796  0.86249150  0.46793490    -0.18300
H939        H  0.31437586  0.83016723  0.32485182     0.10800
H940        H  0.32713954  0.82988512  0.36969418     0.10800
H941        H  0.33631249  0.88553321  0.38463198     0.10500
H942        H  0.32387235  0.88592636  0.34052682     0.11600
H943        H  0.33427865  0.84421885  0.41856387     0.11700
H944        H  0.36151424  0.88599555  0.40638656     0.13600
H945        H  0.38573996  0.90281333  0.43873799     0.10100
H946        H  0.39506302  0.91066233  0.48553162     0.12200
H947        H  0.34798681  0.85724348  0.51070835     0.08800
H948        H  0.33823824  0.84933590  0.46354938     0.11600
C949        C  0.39526531  0.06992754  0.26312995    -0.03000
C950        C  0.39637712  0.05960030  0.28499173    -0.05600
C951        C  0.38697536  0.03992017  0.28424850    -0.20700
C952        C  0.37637566  0.03005377  0.26160039     0.25000
C953        C  0.37530633  0.04035674  0.23959713    -0.18300
C954        C  0.38468681  0.06007669  0.24036493    -0.08200
C955        C  0.36605006  0.00908286  0.26236718    -0.18500
C956        C  0.36004864  0.99814924  0.24028921    -0.23300
C957        C  0.34989869  0.97719809  0.24146541     0.27100
C958        C  0.35063853  0.96732160  0.21907684    -0.20100
C959        C  0.34106816  0.94762552  0.21914009    -0.09700
C960        C  0.33030831  0.93729106  0.24153948    -0.10300
C961        C  0.32944770  0.94716652  0.26392798    -0.03200
C962        C  0.33909317  0.96690320  0.26389053    -0.18300
H963        H  0.40432678  0.06670101  0.30289683     0.10800
H964        H  0.38794488  0.03235400  0.30152954     0.10800
H965        H  0.36687986  0.03331775  0.22203947     0.10500
H966        H  0.38344098  0.06758706  0.22324044     0.11600
H967        H  0.36409584  0.00247957  0.28198799     0.11700
H968        H  0.36349884  0.00466472  0.22049884     0.13600
H969        H  0.35871112  0.97488215  0.20147248     0.10100
H970        H  0.34195972  0.94050329  0.20145074     0.12200
H971        H  0.32113614  0.93965033  0.28137524     0.08800
H972        H  0.33766567  0.97397190  0.28120608     0.11600
C973        C  0.19769892  0.98093674  0.84072220    -0.03000
C974        C  0.21573146  0.99373769  0.83078976    -0.05600
C975        C  0.21791957  0.00277566  0.80616480    -0.20700
C976        C  0.20219097  0.99903857  0.79039466     0.25000
C977        C  0.18399244  0.98658572  0.80054366    -0.18300
C978        C  0.18178382  0.97773761  0.82570721    -0.08200
C979        C  0.20600563  0.00801463  0.76327709    -0.18500
C980        C  0.19377041  0.00243615  0.74242729    -0.23300
C981        C  0.20062479  0.00958404  0.71470921     0.27100
C982        C  0.18952439  0.01280625  0.69622173    -0.20100
C983        C  0.19642219  0.01992812  0.67030369    -0.09700
C984        C  0.21443951  0.02367766  0.66243161    -0.10300
C985        C  0.22507594  0.01967609  0.68075434    -0.03200
C986        C  0.21826976  0.01269059  0.70635072    -0.18300
H987        H  0.22826033  0.99670501  0.84206362     0.10800
H988        H  0.23209834  0.01235424  0.79903037     0.10800
H989        H  0.17151557  0.98355783  0.78917549     0.10500
H990        H  0.16771573  0.96798242  0.83301130     0.11600
H991        H  0.22049709  0.01908113  0.75957094     0.11700
H992        H  0.17896584  0.99204322  0.74519290     0.13600
H993        H  0.17570976  0.01016995  0.70201622     0.10100
H994        H  0.18778903  0.02266673  0.65660630     0.12200
H995        H  0.23883762  0.02196593  0.67540126     0.08800
H996        H  0.22686178  0.00955700  0.71955183     0.11600
C997        C  0.40556810  0.05603505  0.91727749    -0.03000
C998        C  0.39587436  0.06266752  0.90145278    -0.05600
C999        C  0.37633888  0.05463812  0.90374529    -0.20700
C1000       C  0.36595835  0.03948214  0.92135663     0.25000
C1001       C  0.37556413  0.03277591  0.93725040    -0.18300
C1002       C  0.39521752  0.04108438  0.93537489    -0.08200
C1003       C  0.34521877  0.03129580  0.92311706    -0.18500
C1004       C  0.33313971  0.01270972  0.92646128    -0.23300
C1005       C  0.31232492  0.00432296  0.92643641     0.27100
C1006       C  0.30090305  0.98624548  0.91567805    -0.20100
C1007       C  0.28124117  0.97780497  0.91563204    -0.09700
C1008       C  0.27256786  0.98705986  0.92708272    -0.10300
C1009       C  0.28397590  0.00508077  0.93817653    -0.03200
C1010       C  0.30368557  0.01372237  0.93763706    -0.18300
H1011       H  0.40343149  0.07425224  0.88746250     0.10800
H1012       H  0.36926196  0.06011641  0.89143952     0.10800
H1013       H  0.36794576  0.02133685  0.95142397     0.10500
H1014       H  0.40228310  0.03570400  0.94788370     0.11600
H1015       H  0.33968533  0.04061753  0.91939712     0.11700
H1016       H  0.33861095  0.00315187  0.92728995     0.13600
H1017       H  0.30723193  0.97868755  0.90710596     0.10100
H1018       H  0.27279265  0.96382910  0.90718843     0.12200
H1019       H  0.27764936  0.01250192  0.94719486     0.08800
H1020       H  0.31211318  0.02753048  0.94656569     0.11600
C1021       C  0.26536791  0.88012095  0.15010195    -0.03000
C1022       C  0.27604157  0.88745023  0.12650425    -0.05600
C1023       C  0.26906821  0.89315797  0.10494563    -0.20700
C1024       C  0.25156519  0.89215374  0.10684349     0.25000
C1025       C  0.24081185  0.88474477  0.13034934    -0.18300
C1026       C  0.24759336  0.87865746  0.15169602    -0.08200
C1027       C  0.24461154  0.89844457  0.08376717    -0.18500
C1028       C  0.23512356  0.90765855  0.08696653    -0.23300
C1029       C  0.22867004  0.91442301  0.06382137     0.27100
C1030       C  0.22890196  0.93154930  0.06578113    -0.20100
C1031       C  0.22306332  0.93831540  0.04407519    -0.09700
C1032       C  0.21637549  0.92777841  0.02028809    -0.10300
C1033       C  0.21569255  0.91038136  0.01864148    -0.03200
C1034       C  0.22189442  0.90382804  0.04010273    -0.18300
H1035       H  0.28975254  0.88869390  0.12465288     0.10800
H1036       H  0.27750506  0.89868757  0.08691288     0.10800
H1037       H  0.22706944  0.88343601  0.13209905     0.10500
H1038       H  0.23905303  0.87309058  0.16962581     0.11600
H1039       H  0.24848771  0.89654362  0.06367156     0.11700
H1040       H  0.23304957  0.91136863  0.10707639     0.13600
H1041       H  0.23392361  0.93985598  0.08397644     0.10100
H1042       H  0.22366544  0.95171908  0.04595936     0.12200
H1043       H  0.21062641  0.90194620  0.00056808     0.08800
H1044       H  0.22114716  0.89035712  0.03825242     0.11600
C1045       C  0.52623205  0.86462587  0.68959603    -0.03000
C1046       C  0.52910306  0.87463341  0.66532637    -0.05600
C1047       C  0.51421978  0.87546748  0.65282985    -0.20700
C1048       C  0.49622350  0.86668394  0.66454873     0.25000
C1049       C  0.49325955  0.85649422  0.68866832    -0.18300
C1050       C  0.50807621  0.85541755  0.70097345    -0.08200
C1051       C  0.48092339  0.86853801  0.65128110    -0.18500
C1052       C  0.46753175  0.86954545  0.66539427    -0.23300
C1053       C  0.45398748  0.87432991  0.65297872     0.27100
C1054       C  0.44993078  0.88661212  0.66683670    -0.20100
C1055       C  0.43785663  0.89213633  0.65568828    -0.09700
C1056       C  0.42904140  0.88507466  0.63071348    -0.10300
C1057       C  0.43240611  0.87209401  0.61721839    -0.03200
C1058       C  0.44500780  0.86693792  0.62811750    -0.18300
H1059       H  0.54287076  0.88180420  0.65591110     0.10800
H1060       H  0.51687046  0.88333281  0.63421732     0.10800
H1061       H  0.47946136  0.84919863  0.69795259     0.10500
H1062       H  0.50535959  0.84755818  0.71959410     0.11600
H1063       H  0.48179373  0.87102380  0.62970110     0.11700
H1064       H  0.46791528  0.86912586  0.68722107     0.13600
H1065       H  0.45654702  0.89237220  0.68607728     0.10100
H1066       H  0.43543220  0.90204869  0.66665884     0.12200
H1067       H  0.42579560  0.86644542  0.59795003     0.08800
H1068       H  0.44765864  0.85715439  0.61724165     0.11600
C1069       C  0.72447666  0.92671743  0.52389845    -0.03000
C1070       C  0.71386901  0.90711830  0.52824582    -0.05600
C1071       C  0.70054144  0.89957491  0.54885900    -0.20700
C1072       C  0.69735655  0.91137321  0.56551109     0.25000
C1073       C  0.70856532  0.93104654  0.56203245    -0.18300
C1074       C  0.72195490  0.93862025  0.54139357    -0.08200
C1075       C  0.68227287  0.90253159  0.58617602    -0.18500
C1076       C  0.67338004  0.91102228  0.59659485    -0.23300
C1077       C  0.65760383  0.90179555  0.61624795     0.27100
C1078       C  0.64571258  0.90925269  0.61969251    -0.20100
C1079       C  0.63093702  0.90128098  0.63829579    -0.09700
C1080       C  0.62774802  0.88566145  0.65398818    -0.10300
C1081       C  0.63962657  0.87816592  0.65052530    -0.03200
C1082       C  0.65443427  0.88617759  0.63202617    -0.18300
H1083       H  0.71547946  0.89751592  0.51525259     0.10800
H1084       H  0.69230122  0.88439454  0.55131509     0.10800
H1085       H  0.70704595  0.94065342  0.57508724     0.10500
H1086       H  0.72998778  0.95378312  0.53873596     0.11600
H1087       H  0.67750679  0.88798010  0.59142622     0.11700
H1088       H  0.67704878  0.92496682  0.58945333     0.13600
H1089       H  0.64789733  0.92135302  0.60798604     0.10100
H1090       H  0.62217913  0.90752732  0.64063097     0.12200
H1091       H  0.63778271  0.86633900  0.66259517     0.08800
H1092       H  0.66356991  0.88032117  0.63077956     0.11600
C1093       C  0.55076570  0.12299281  0.88216808    -0.03000
C1094       C  0.56597563  0.13713362  0.89684480    -0.05600
C1095       C  0.58464913  0.14360926  0.88873609    -0.20700
C1096       C  0.58842999  0.13648087  0.86542628     0.25000
C1097       C  0.57312692  0.12279847  0.85032287    -0.18300
C1098       C  0.55458292  0.11609951  0.85867423    -0.08200
C1099       C  0.60826213  0.14213900  0.85850475    -0.18500
C1100       C  0.61392491  0.14219868  0.83304227    -0.23300
C1101       C  0.63285219  0.14524228  0.82578216     0.27100
C1102       C  0.63993699  0.15182837  0.79985348    -0.20100
C1103       C  0.65665772  0.15292740  0.79120415    -0.09700
C1104       C  0.66647943  0.14701043  0.80807897    -0.10300
C1105       C  0.65957131  0.14069975  0.83422111    -0.03200
C1106       C  0.64301670  0.13993604  0.84305586    -0.18300
H1107       H  0.56345533  0.14260912  0.91511063     0.10800
H1108       H  0.59618007  0.15402778  0.90087884     0.10800
H1109       H  0.57541135  0.11659960  0.83266386     0.10500
H1110       H  0.54315234  0.10521539  0.84690419     0.11600
H1111       H  0.61838788  0.14625691  0.87487451     0.11700
H1112       H  0.60424270  0.13986601  0.81656828     0.13600
H1113       H  0.63230323  0.15581623  0.78603318     0.10100
H1114       H  0.66147944  0.15769846  0.77088172     0.12200
H1115       H  0.66677735  0.13599740  0.84769136     0.08800
H1116       H  0.63777603  0.13437129  0.86294103     0.11600
C1117       C  0.61752334  0.93542043  0.75526803    -0.03000
C1118       C  0.63413734  0.94434876  0.77074950    -0.05600
C1119       C  0.64429401  0.96399711  0.77324024    -0.20700
C1120       C  0.63779406  0.97506051  0.76095054     0.25000
C1121       C  0.62091622  0.96613080  0.74603639    -0.18300
C1122       C  0.61096214  0.94651614  0.74307066    -0.08200
C1123       C  0.64962062  0.99589615  0.76226115    -0.18500
C1124       C  0.64241364  0.00737318  0.76271335    -0.23300
C1125       C  0.65470639  0.02818112  0.76308279     0.27100
C1126       C  0.64973066  0.03907610  0.77881119    -0.20100
C1127       C  0.66139257  0.05872179  0.77968044    -0.09700
C1128       C  0.67797866  0.06784661  0.76421079    -0.10300
C1129       C  0.68259756  0.05691802  0.74783298    -0.03200
C1130       C  0.67115728  0.03729059  0.74740754    -0.18300
H1131       H  0.63962781  0.93620281  0.78019019     0.10800
H1132       H  0.65735575  0.97060493  0.78463378     0.10800
H1133       H  0.61576959  0.97432141  0.73583222     0.10500
H1134       H  0.59822836  0.94004213  0.73095674     0.11600
H1135       H  0.66481623  0.00197633  0.76375106     0.11700
H1136       H  0.62724521  0.00141570  0.76408278     0.13600
H1137       H  0.63699940  0.03233837  0.79082523     0.10100
H1138       H  0.65737836  0.06677251  0.79233079     0.12200
H1139       H  0.69522710  0.06351661  0.73561154     0.08800
H1140       H  0.67507422  0.02924662  0.73457805     0.11600
C1141       C  0.78780447  0.97451560  0.33680822    -0.03000
C1142       C  0.77417844  0.97231817  0.31766957    -0.05600
C1143       C  0.77941084  0.97977356  0.29192203    -0.20700
C1144       C  0.79839263  0.98953375  0.28424239     0.25000
C1145       C  0.81218331  0.99119342  0.30281220    -0.18300
C1146       C  0.80689078  0.98368363  0.32898138    -0.08200
C1147       C  0.80277332  0.99895870  0.25754651    -0.18500
C1148       C  0.81855577  0.00448076  0.24313067    -0.23300
C1149       C  0.82077980  0.01364242  0.21640601     0.27100
C1150       C  0.82894716  0.00943783  0.19479306    -0.20100
C1151       C  0.82909895  0.01649533  0.16890695    -0.09700
C1152       C  0.82111169  0.02789466  0.16437371    -0.10300
C1153       C  0.81390028  0.03285125  0.18636828    -0.03200
C1154       C  0.81388712  0.02597279  0.21203782    -0.18300
H1155       H  0.75932133  0.96513065  0.32270454     0.10800
H1156       H  0.76849457  0.97822169  0.27803922     0.10800
H1157       H  0.82699635  0.99886060  0.29757722     0.10500
H1158       H  0.81771344  0.98557830  0.34326121     0.11600
H1159       H  0.79170369  0.00081748  0.24865301     0.11700
H1160       H  0.82913759  0.00120878  0.24999309     0.13600
H1161       H  0.83453160  0.00012927  0.19773257     0.10100
H1162       H  0.83488746  0.01255752  0.15235704     0.12200
H1163       H  0.80805563  0.04196275  0.18372655     0.08800
H1164       H  0.80817605  0.03011202  0.22845313     0.11600
C1165       C  0.79134089  0.07222233  0.98495123    -0.03000
C1166       C  0.77596445  0.05939610  0.96912640    -0.05600
C1167       C  0.76758514  0.06582301  0.95061214    -0.20700
C1168       C  0.77437713  0.08519195  0.94735256     0.25000
C1169       C  0.78989617  0.09805383  0.96305379    -0.18300
C1170       C  0.79831809  0.09162900  0.98148401    -0.08200
C1171       C  0.76454441  0.09124577  0.92795866    -0.18500
C1172       C  0.77216418  0.10894452  0.91820476    -0.23300
C1173       C  0.76286289  0.11471202  0.89758883     0.27100
C1174       C  0.77431793  0.13040605  0.88137692    -0.20100
C1175       C  0.76646503  0.13601270  0.86096746    -0.09700
C1176       C  0.74686158  0.12619772  0.85642729    -0.10300
C1177       C  0.73523767  0.11091118  0.87334715    -0.03200
C1178       C  0.74315010  0.10520000  0.89375132    -0.18300
H1179       H  0.77011518  0.04434047  0.97143014     0.10800
H1180       H  0.75562142  0.05558204  0.93892777     0.10800
H1181       H  0.79533053  0.11306247  0.96190559     0.10500
H1182       H  0.80997130  0.10189297  0.99360202     0.11600
H1183       H  0.75090651  0.08039959  0.92043062     0.11700
H1184       H  0.78643647  0.11947629  0.92386744     0.13600
H1185       H  0.78950084  0.13812145  0.88407806     0.10100
H1186       H  0.77584842  0.14792242  0.84844488     0.12200
H1187       H  0.72008387  0.10309999  0.87043034     0.08800
H1188       H  0.73379476  0.09340376  0.90641863     0.11600
C1189       C  0.64688545  0.12283755  0.49611303    -0.03000
C1190       C  0.65683287  0.14240122  0.50085581    -0.05600
C1191       C  0.66446899  0.14947510  0.52647853    -0.20700
C1192       C  0.66238282  0.13712635  0.54765420     0.25000
C1193       C  0.65157769  0.11760230  0.54312339    -0.18300
C1194       C  0.64406986  0.11059434  0.51777114    -0.08200
C1195       C  0.67164638  0.14449879  0.57430159    -0.18500
C1196       C  0.67855019  0.13531599  0.58860172    -0.23300
C1197       C  0.68726747  0.14031334  0.61590954     0.27100
C1198       C  0.69685791  0.13121547  0.62468426    -0.20100
C1199       C  0.70367988  0.13339151  0.65087851    -0.09700
C1200       C  0.70111120  0.14472959  0.66942877    -0.10300
C1201       C  0.69212955  0.15452695  0.66055374    -0.03200
C1202       C  0.68518174  0.15229237  0.63397179    -0.18300
H1203       H  0.65912855  0.15220841  0.48466206     0.10800
H1204       H  0.67249616  0.16457979  0.52953995     0.10800
H1205       H  0.64894566  0.10762150  0.55920222     0.10500
H1206       H  0.63612802  0.09544310  0.51513408     0.11600
H1207       H  0.67338034  0.15770576  0.58150663     0.11700
H1208       H  0.67804320  0.12312157  0.57939764     0.13600
H1209       H  0.69875286  0.12195226  0.61132342     0.10100
H1210       H  0.71072943  0.12579565  0.65671413     0.12200
H1211       H  0.68991310  0.16334881  0.67434338     0.08800
H1212       H  0.67766903  0.15937942  0.62801361     0.11600
C1213       C  0.48900480  0.14601488  0.30747814    -0.03000
C1214       C  0.50426638  0.15141747  0.28990987    -0.05600
C1215       C  0.51963476  0.14952258  0.29758518    -0.20700
C1216       C  0.52038777  0.14268832  0.32323703     0.25000
C1217       C  0.50543812  0.13789292  0.34122851    -0.18300
C1218       C  0.48983683  0.13939759  0.33332841    -0.08200
C1219       C  0.53595997  0.13900254  0.32956070    -0.18500
C1220       C  0.54257236  0.13950737  0.35462313    -0.23300
C1221       C  0.55683352  0.13390440  0.36074386     0.27100
C1222       C  0.56923631  0.14206162  0.38264032    -0.20100
C1223       C  0.58183492  0.13598183  0.38992157    -0.09700
C1224       C  0.58188805  0.12124323  0.37585865    -0.10300
C1225       C  0.56957912  0.11322373  0.35381000    -0.03200
C1226       C  0.55728282  0.11951910  0.34625438    -0.18300
H1227       H  0.50397969  0.15639287  0.26977842     0.10800
H1228       H  0.53086200  0.15313803  0.28325969     0.10800
H1229       H  0.50535629  0.13218507  0.36094401     0.10500
H1230       H  0.47827114  0.13508312  0.34727939     0.11600
H1231       H  0.54236579  0.13596565  0.31274155     0.11700
H1232       H  0.53755913  0.14434202  0.37117195     0.13600
H1233       H  0.56905322  0.15305217  0.39427471     0.10100
H1234       H  0.59105293  0.14234718  0.40709590     0.12200
H1235       H  0.56926474  0.10184132  0.34254942     0.08800
H1236       H  0.54763164  0.11257368  0.32969967     0.11600
C1237       C  0.56339499  0.04098982  0.45581694    -0.03000
C1238       C  0.56514989  0.03368435  0.48061500    -0.05600
C1239       C  0.54920806  0.02223778  0.49621346    -0.20700
C1240       C  0.53117341  0.01793343  0.48754283     0.25000
C1241       C  0.52935692  0.02487652  0.46241137    -0.18300
C1242       C  0.54529284  0.03631571  0.44680920    -0.08200
C1243       C  0.51464758  0.00569501  0.50486301    -0.18500
C1244       C  0.49796909  0.00508652  0.50315973    -0.23300
C1245       C  0.48121509  0.99224386  0.51965180     0.27100
C1246       C  0.46321634  0.98709097  0.50974011    -0.20100
C1247       C  0.44700570  0.97461703  0.52411395    -0.09700
C1248       C  0.44843553  0.96712128  0.54892642    -0.10300
C1249       C  0.46648425  0.97271886  0.55926770    -0.03200
C1250       C  0.48270752  0.98518754  0.54485530    -0.18300
H1251       H  0.57887065  0.03694505  0.48813380     0.10800
H1252       H  0.55100214  0.01689945  0.51530893     0.10800
H1253       H  0.51569692  0.02134679  0.45441848     0.10500
H1254       H  0.54341069  0.04155317  0.42769175     0.11600
H1255       H  0.51644961  0.99690832  0.51954313     0.11700
H1256       H  0.49612809  0.01385933  0.48851465     0.13600
H1257       H  0.46167060  0.99245976  0.49051587     0.10100
H1258       H  0.43334020  0.97065474  0.51557422     0.12200
H1259       H  0.46809676  0.96737656  0.57846261     0.08800
H1260       H  0.49631870  0.98933673  0.55367792     0.11600
C1261       C  0.72457534  0.98791180  0.42690755    -0.03000
C1262       C  0.70780410  0.98010467  0.41173186    -0.05600
C1263       C  0.69707454  0.98893807  0.41062465    -0.20700
C1264       C  0.70308994  0.00602224  0.42404277     0.25000
C1265       C  0.71994221  0.01395470  0.43909041    -0.18300
C1266       C  0.73048828  0.00489764  0.44067760    -0.08200
C1267       C  0.69108325  0.01476441  0.42283540    -0.18500
C1268       C  0.69818080  0.03354877  0.42318357    -0.23300
C1269       C  0.68610407  0.04215836  0.42082219     0.27100
C1270       C  0.69293333  0.05924298  0.40678164    -0.20100
C1271       C  0.68185711  0.06763241  0.40399683    -0.09700
C1272       C  0.66391988  0.05940124  0.41593099    -0.10300
C1273       C  0.65726403  0.04254289  0.43060824    -0.03200
C1274       C  0.66816931  0.03390350  0.43283423    -0.18300
H1275       H  0.70276826  0.96694418  0.40110308     0.10800
H1276       H  0.68407433  0.98246270  0.39908858     0.10800
H1277       H  0.72475420  0.02690240  0.45015885     0.10500
H1278       H  0.74330836  0.01121763  0.45259849     0.11600
H1279       H  0.67600754  0.00545855  0.41985604     0.11700
H1280       H  0.71338540  0.04296246  0.42330239     0.13600
H1281       H  0.70676040  0.06595051  0.39754698     0.10100
H1282       H  0.68740184  0.08067328  0.39269145     0.12200
H1283       H  0.64348824  0.03587247  0.43998101     0.08800
H1284       H  0.66268412  0.02093302  0.44427753     0.11600
C1285       C  0.55293498  0.85267961  0.83229743    -0.03000
C1286       C  0.53347893  0.84433505  0.83734124    -0.05600
C1287       C  0.52697741  0.84455843  0.86339306    -0.20700
C1288       C  0.53979761  0.85316639  0.88475610     0.25000
C1289       C  0.55911627  0.86042469  0.87989040    -0.18300
C1290       C  0.56557495  0.86032174  0.85406307    -0.08200
C1291       C  0.53307356  0.85511905  0.91174747    -0.18500
C1292       C  0.54381838  0.87035568  0.92714612    -0.23300
C1293       C  0.53867559  0.87445734  0.95388092     0.27100
C1294       C  0.54891217  0.89316587  0.96267585    -0.20100
C1295       C  0.54606982  0.89812086  0.98814784    -0.09700
C1296       C  0.53295185  0.88448481  0.00601582    -0.10300
C1297       C  0.52232716  0.86565472  0.99721123    -0.03200
C1298       C  0.52515213  0.86065465  0.97127892    -0.18300
H1299       H  0.52336854  0.83821267  0.82105247     0.10800
H1300       H  0.51199460  0.83861880  0.86665911     0.10800
H1301       H  0.56937947  0.86639378  0.89601017     0.10500
H1302       H  0.58062163  0.86648266  0.85112375     0.11600
H1303       H  0.51887699  0.84475026  0.91803467     0.11700
H1304       H  0.55718731  0.88132829  0.91900251     0.13600
H1305       H  0.55941683  0.90410670  0.94981129     0.10100
H1306       H  0.55451182  0.91278843  0.99392003     0.12200
H1307       H  0.51216755  0.85479518  0.01048135     0.08800
H1308       H  0.51719915  0.84601799  0.96527429     0.11600
C1309       C  0.34668225  0.86173417  0.18644351    -0.03000
C1310       C  0.35373201  0.87248708  0.16278333    -0.05600
C1311       C  0.36909404  0.87354935  0.14939201    -0.20700
C1312       C  0.37797192  0.86394138  0.15912837     0.25000
C1313       C  0.37079231  0.85281873  0.18256825    -0.18300
C1314       C  0.35522545  0.85167765  0.19602789    -0.08200
C1315       C  0.39554838  0.86754831  0.14530209    -0.18500
C1316       C  0.40482809  0.85812312  0.14946490    -0.23300
C1317       C  0.42386169  0.86488299  0.13759939     0.27100
C1318       C  0.43000891  0.85216059  0.13160049    -0.20100
C1319       C  0.44838499  0.85873663  0.12188906    -0.09700
C1320       C  0.46099025  0.87819055  0.11854679    -0.10300
C1321       C  0.45464304  0.89076818  0.12423308    -0.03200
C1322       C  0.43646054  0.88426292  0.13371477    -0.18300
H1323       H  0.34749998  0.88033636  0.15464282     0.10800
H1324       H  0.37430835  0.88229007  0.13150334     0.10800
H1325       H  0.37742023  0.84545976  0.19103110     0.10500
H1326       H  0.35018109  0.84331113  0.21425454     0.11600
H1327       H  0.40139178  0.87908183  0.13084232     0.11700
H1328       H  0.39865301  0.84549311  0.16185198     0.13600
H1329       H  0.42065231  0.83716703  0.13467692     0.10100
H1330       H  0.45292478  0.84871636  0.11793501     0.12200
H1331       H  0.46394746  0.90585191  0.12199041     0.08800
H1332       H  0.43260717  0.89461429  0.13894870     0.11600
C1333       C  0.54568061  0.94881809  0.19016008    -0.03000
C1334       C  0.53542032  0.95802022  0.19434285    -0.05600
C1335       C  0.54031736  0.97103765  0.21514942    -0.20700
C1336       C  0.55569896  0.97534426  0.23203416     0.25000
C1337       C  0.56555026  0.96564159  0.22854785    -0.18300
C1338       C  0.56059465  0.95253246  0.20779520    -0.08200
C1339       C  0.56103366  0.99001345  0.25296758    -0.18500
C1340       C  0.57884991  0.00070188  0.26206767    -0.23300
C1341       C  0.58479560  0.01617569  0.28189000     0.27100
C1342       C  0.60400703  0.02994099  0.28350190    -0.20100
C1343       C  0.61045514  0.04442074  0.30238276    -0.09700
C1344       C  0.59782487  0.04543487  0.32026892    -0.10300
C1345       C  0.57853403  0.03175829  0.31854529    -0.03200
C1346       C  0.57207748  0.01722580  0.29965009    -0.18300
H1347       H  0.52377472  0.95542236  0.18123656     0.10800
H1348       H  0.53236580  0.97814331  0.21761238     0.10800
H1349       H  0.57707123  0.96810396  0.24179015     0.10500
H1350       H  0.56868997  0.94559191  0.20525156     0.11600
H1351       H  0.55021945  0.99297298  0.25941120     0.11700
H1352       H  0.58989436  0.99879183  0.25355198     0.13600
H1353       H  0.61411908  0.02943573  0.27017525     0.10100
H1354       H  0.62541917  0.05466154  0.30321977     0.12200
H1355       H  0.56847114  0.03198191  0.33227201     0.08800
H1356       H  0.55724043  0.00662651  0.29962742     0.11600
C1357       C  0.73984445  0.01262950  0.08311542    -0.03000
C1358       C  0.73149651  0.02089603  0.09810266    -0.05600
C1359       C  0.71187053  0.01210045  0.10008415    -0.20700
C1360       C  0.70020375  0.99464186  0.08776211     0.25000
C1361       C  0.70849563  0.98623794  0.07293542    -0.18300
C1362       C  0.72814183  0.99523778  0.07045187    -0.08200
C1363       C  0.67944738  0.98601707  0.08957932    -0.18500
C1364       C  0.66755975  0.96727436  0.09124789    -0.23300
C1365       C  0.64682163  0.95889786  0.09323094     0.27100
C1366       C  0.63622450  0.94267209  0.10898620    -0.20100
C1367       C  0.61663384  0.93454787  0.11113779    -0.09700
C1368       C  0.60722082  0.94222904  0.09695491    -0.10300
C1369       C  0.61782691  0.95824811  0.08072783    -0.03200
C1370       C  0.63743076  0.96657407  0.07901689    -0.18300
H1371       H  0.74012852  0.03440761  0.10777744     0.10800
H1372       H  0.70576724  0.01891491  0.11136424     0.10800
H1373       H  0.69980656  0.97298059  0.06268024     0.10500
H1374       H  0.73417408  0.98861165  0.05859303     0.11600
H1375       H  0.67387622  0.99545855  0.09106389     0.11700
H1376       H  0.67321757  0.95789133  0.09267183     0.13600
H1377       H  0.64315682  0.93642422  0.11991126     0.10100
H1378       H  0.60882333  0.92211117  0.12361288     0.12200
H1379       H  0.61097909  0.96444951  0.06949086     0.08800
H1380       H  0.64518435  0.97881887  0.06618656     0.11600
C1381       C  0.52869189  0.96447976  0.05295778    -0.03000
C1382       C  0.53885294  0.97336940  0.02946641    -0.05600
C1383       C  0.53534251  0.98604416  0.01524927    -0.20700
C1384       C  0.52150652  0.99002213  0.02398963     0.25000
C1385       C  0.51179154  0.98162099  0.04801301    -0.18300
C1386       C  0.51531166  0.96897871  0.06223582    -0.08200
C1387       C  0.51781068  0.00308959  0.00763504    -0.18500
C1388       C  0.50146772  0.00324966  0.00841000    -0.23300
C1389       C  0.49748701  0.01592564  0.99158686     0.27100
C1390       C  0.48322430  0.01942857  0.99978717    -0.20100
C1391       C  0.47894177  0.03119510  0.98464177    -0.09700
C1392       C  0.48872339  0.03962731  0.96071315    -0.10300
C1393       C  0.50272379  0.03579386  0.95217035    -0.03200
C1394       C  0.50703774  0.02406753  0.96735443    -0.18300
H1395       H  0.54933257  0.97033149  0.02181764     0.10800
H1396       H  0.54321690  0.99248553  0.99701734     0.10800
H1397       H  0.50155450  0.98481517  0.05610134     0.10500
H1398       H  0.50739291  0.96259852  0.08044865     0.11600
H1399       H  0.52889606  0.01254249  0.99400198     0.11700
H1400       H  0.49038338  0.99377454  0.02202923     0.13600
H1401       H  0.47548030  0.01318587  0.01817925     0.10100
H1402       H  0.46802435  0.03375825  0.99178682     0.12200
H1403       H  0.51043053  0.04190479  0.93372060     0.08800
H1404       H  0.51764667  0.02124807  0.95972704     0.11600
C1405       C  0.45848173  0.24066239  0.78893199    -0.03000
C1406       C  0.47803803  0.24792473  0.79105903    -0.05600
C1407       C  0.48500827  0.23638715  0.80007173    -0.20700
C1408       C  0.47258343  0.21732873  0.80650005     0.25000
C1409       C  0.45305123  0.21006552  0.80386734    -0.18300
C1410       C  0.44612437  0.22156307  0.79519870    -0.08200
C1411       C  0.47998829  0.20548630  0.81766400    -0.18500
C1412       C  0.47086568  0.18667841  0.81389779    -0.23300
C1413       C  0.47553920  0.17337728  0.82750968     0.27100
C1414       C  0.46695180  0.15488453  0.81772910    -0.20100
C1415       C  0.46879984  0.14105281  0.83142148    -0.09700
C1416       C  0.47931040  0.14529453  0.85541559    -0.10300
C1417       C  0.48848034  0.16396829  0.86486946    -0.03200
C1418       C  0.48656897  0.17789026  0.85111596    -0.18300
H1419       H  0.48789394  0.26261739  0.78654083     0.10800
H1420       H  0.50010437  0.24236723  0.80219693     0.10800
H1421       H  0.44298340  0.19564111  0.80942235     0.10500
H1422       H  0.43097728  0.21550300  0.79380841     0.11600
H1423       H  0.49300859  0.21241048  0.82918979     0.11700
H1424       H  0.45888909  0.18044407  0.80019495     0.13600
H1425       H  0.45833310  0.15095995  0.79968506     0.10100
H1426       H  0.46164641  0.12688305  0.82337869     0.12200
H1427       H  0.49662847  0.16768520  0.88333364     0.08800
H1428       H  0.49312312  0.19187661  0.85963478     0.11600
C1429       C  0.29977583  0.10773734  0.62480092    -0.03000
C1430       C  0.30741981  0.10554693  0.64899843    -0.05600
C1431       C  0.31952281  0.12129824  0.66456436    -0.20700
C1432       C  0.32407430  0.13952983  0.65647371     0.25000
C1433       C  0.31688260  0.14174393  0.63184028    -0.18300
C1434       C  0.30486564  0.12605307  0.61627834    -0.08200
C1435       C  0.33669724  0.15589473  0.67381951    -0.18500
C1436       C  0.33688287  0.17240774  0.67329461    -0.23300
C1437       C  0.34974360  0.18914347  0.68986902     0.27100
C1438       C  0.35303570  0.20695631  0.68173297    -0.20100
C1439       C  0.36525053  0.22317171  0.69631850    -0.09700
C1440       C  0.37433541  0.22192742  0.71961534    -0.10300
C1441       C  0.37067235  0.20403425  0.72815940    -0.03200
C1442       C  0.35850980  0.18783233  0.71352581    -0.18300
H1443       H  0.30388348  0.09165595  0.65608144     0.10800
H1444       H  0.32508541  0.11920429  0.68324116     0.10800
H1445       H  0.32061904  0.15555530  0.62424251     0.10500
H1446       H  0.29940490  0.12830436  0.59762555     0.11600
H1447       H  0.34593751  0.15404021  0.68752852     0.11700
H1448       H  0.32743785  0.17405142  0.65971682     0.13600
H1449       H  0.34634908  0.20837957  0.66374366     0.10100
H1450       H  0.36771387  0.23670291  0.68916797     0.12200
H1451       H  0.37734436  0.20253086  0.74609315     0.08800
H1452       H  0.35593857  0.17437474  0.72107038     0.11600
C1453       C  0.21897825  0.12266262  0.04859746    -0.03000
C1454       C  0.20453614  0.10725797  0.06265318    -0.05600
C1455       C  0.19884970  0.08873539  0.05491512    -0.20700
C1456       C  0.20708281  0.08535386  0.03255144     0.25000
C1457       C  0.22118754  0.10078915  0.01817276    -0.18300
C1458       C  0.22713051  0.11919044  0.02620693    -0.08200
C1459       C  0.20194528  0.06579821  0.02554409    -0.18500
C1460       C  0.20133684  0.06034632  0.99989576    -0.23300
C1461       C  0.19858396  0.04168681  0.99244800     0.27100
C1462       C  0.18892777  0.03307154  0.96859822    -0.20100
C1463       C  0.18769375  0.01637803  0.95971016    -0.09700
C1464       C  0.19658362  0.00824500  0.97412868    -0.10300
C1465       C  0.20610186  0.01680029  0.99819256    -0.03200
C1466       C  0.20698463  0.03328308  0.00736630    -0.18300
H1467       H  0.19809956  0.10952947  0.08007347     0.10800
H1468       H  0.18807333  0.07703114  0.06644172     0.10800
H1469       H  0.22812842  0.09866775  0.00124881     0.10500
H1470       H  0.23828010  0.13076658  0.01494628     0.11600
H1471       H  0.19860805  0.05570584  0.04180714     0.11700
H1472       H  0.20283255  0.06989514  0.98361853     0.13600
H1473       H  0.18251810  0.03941454  0.95664572     0.10100
H1474       H  0.18034944  0.01021841  0.94102587     0.12200
H1475       H  0.21312980  0.01091643  0.00973064     0.08800
H1476       H  0.21490390  0.03986118  0.02551445     0.11600
C1477       C  0.29087633  0.21044461  0.98641947    -0.03000
C1478       C  0.28778397  0.21727231  0.96208293    -0.05600
C1479       C  0.30097771  0.22309600  0.94120111    -0.20700
C1480       C  0.31776523  0.22271399  0.94443766     0.25000
C1481       C  0.32091398  0.21593410  0.96878088    -0.18300
C1482       C  0.30755230  0.20974944  0.98946091    -0.08200
C1483       C  0.33131352  0.22871441  0.92169789    -0.18500
C1484       C  0.35017044  0.23736002  0.92512725    -0.23300
C1485       C  0.36345312  0.24380649  0.90203694     0.27100
C1486       C  0.38059787  0.26100415  0.90364193    -0.20100
C1487       C  0.39296859  0.26771036  0.88168604    -0.09700
C1488       C  0.38869600  0.25702468  0.85801302    -0.10300
C1489       C  0.37189144  0.23943026  0.85688012    -0.03200
C1490       C  0.35932067  0.23296393  0.87855508    -0.18300
H1491       H  0.27508355  0.21796036  0.95908878     0.10800
H1492       H  0.29816977  0.22812404  0.92254655     0.10800
H1493       H  0.33351822  0.21506810  0.97168630     0.10500
H1494       H  0.31039088  0.20461732  0.00798660     0.11600
H1495       H  0.32562784  0.22694881  0.90144440     0.11700
H1496       H  0.35609331  0.24099713  0.94527126     0.13600
H1497       H  0.38417291  0.26949851  0.92164956     0.10100
H1498       H  0.40586908  0.28125675  0.88320840     0.12200
H1499       H  0.36821274  0.23087428  0.83892715     0.08800
H1500       H  0.34640823  0.21943673  0.87698777     0.11600
C1501       C  0.37263257  0.14746474  0.22186017    -0.03000
C1502       C  0.36458579  0.13819141  0.19752054    -0.05600
C1503       C  0.35247148  0.14226491  0.18289109    -0.20700
C1504       C  0.34812508  0.15573893  0.19210192     0.25000
C1505       C  0.35565233  0.16452754  0.21699113    -0.18300
C1506       C  0.36777687  0.16045941  0.23160783    -0.08200
C1507       C  0.33575970  0.16005459  0.17501795    -0.18500
C1508       C  0.33340736  0.17501038  0.17852634    -0.23300
C1509       C  0.32134443  0.17923937  0.16071651     0.27100
C1510       C  0.31400556  0.19011930  0.17082565    -0.20100
C1511       C  0.30255207  0.19434672  0.15477050    -0.09700
C1512       C  0.29825149  0.18784410  0.12813738    -0.10300
C1513       C  0.30600664  0.17737389  0.11780024    -0.03200
C1514       C  0.31748245  0.17320002  0.13380746    -0.18300
H1515       H  0.36796387  0.12806763  0.18942930     0.10800
H1516       H  0.34676646  0.13510696  0.16397018     0.10800
H1517       H  0.35233381  0.17455787  0.22544290     0.10500
H1518       H  0.37359590  0.16776110  0.25039496     0.11600
H1519       H  0.32846348  0.15046946  0.15853145     0.11700
H1520       H  0.34025492  0.18452921  0.19518705     0.13600
H1521       H  0.31692749  0.19514473  0.19136753     0.10100
H1522       H  0.29681304  0.20243622  0.16337138     0.12200
H1523       H  0.30319874  0.17236365  0.09725353     0.08800
H1524       H  0.32344976  0.16545000  0.12484082     0.11600
C1525       C  0.32784672  0.38659983  0.75223582    -0.03000
C1526       C  0.32021462  0.37046469  0.76876507    -0.05600
C1527       C  0.32837811  0.35911854  0.76967898    -0.20700
C1528       C  0.34465329  0.36395521  0.75474854     0.25000
C1529       C  0.35246872  0.38021062  0.73844347    -0.18300
C1530       C  0.34403389  0.39132081  0.73700672    -0.08200
C1531       C  0.35278388  0.35144885  0.75572940    -0.18500
C1532       C  0.37151206  0.35820582  0.75581574    -0.23300
C1533       C  0.37972612  0.34579682  0.75770894     0.27100
C1534       C  0.39631337  0.35177715  0.77268490    -0.20100
C1535       C  0.40450047  0.34048119  0.77462608    -0.09700
C1536       C  0.39656246  0.32320163  0.76093300    -0.10300
C1537       C  0.38014850  0.31738578  0.74546855    -0.03200
C1538       C  0.37169590  0.32848229  0.74407791    -0.18300
H1539       H  0.30761780  0.36632371  0.78046325     0.10800
H1540       H  0.32203230  0.34657727  0.78221079     0.10800
H1541       H  0.36480550  0.38406258  0.72629022     0.10500
H1542       H  0.35015456  0.40358902  0.72394690     0.11600
H1543       H  0.34314438  0.33638910  0.75819743     0.11700
H1544       H  0.38114603  0.37336349  0.75626575     0.13600
H1545       H  0.40282167  0.36513247  0.78318262     0.10100
H1546       H  0.41719740  0.34538731  0.78657027     0.12200
H1547       H  0.37371024  0.30413732  0.73471574     0.08800
H1548       H  0.35910478  0.32369639  0.73194107     0.11600
C1549       C  0.21618920  0.18847096  0.16516297    -0.03000
C1550       C  0.19884903  0.17314262  0.17382575    -0.05600
C1551       C  0.19162487  0.17331885  0.19936246    -0.20700
C1552       C  0.20141409  0.18893953  0.21644420     0.25000
C1553       C  0.21891293  0.20400462  0.20793378    -0.18300
C1554       C  0.22613413  0.20379598  0.18271685    -0.08200
C1555       C  0.19361327  0.18943993  0.24327828    -0.18500
C1556       C  0.19636375  0.20582753  0.25341293    -0.23300
C1557       C  0.19161976  0.20899197  0.28110171     0.27100
C1558       C  0.19583427  0.22733865  0.28728600    -0.20100
C1559       C  0.19430781  0.23226516  0.31349469    -0.09700
C1560       C  0.18836657  0.21896072  0.33447427    -0.10300
C1561       C  0.18293366  0.20021350  0.32825769    -0.03200
C1562       C  0.18466565  0.19525784  0.30176769    -0.18300
H1563       H  0.19091211  0.16103430  0.16094085     0.10800
H1564       H  0.17824120  0.16140930  0.20559560     0.10800
H1565       H  0.22722643  0.21596596  0.22090597     0.10500
H1566       H  0.23961704  0.21578318  0.17700328     0.11600
H1567       H  0.18560935  0.17633753  0.25436782     0.11700
H1568       H  0.20322379  0.21824530  0.24054841     0.13600
H1569       H  0.20106889  0.23821741  0.27190297     0.10100
H1570       H  0.19834836  0.24676918  0.31748996     0.12200
H1571       H  0.17829692  0.18966608  0.34404589     0.08800
H1572       H  0.18121868  0.18094325  0.29790381     0.11600
C1573       C  0.22051537  0.09634276  0.55249372    -0.03000
C1574       C  0.23437657  0.11556996  0.55363473    -0.05600
C1575       C  0.23035731  0.12943830  0.54576201    -0.20700
C1576       C  0.21240543  0.12465204  0.53615092     0.25000
C1577       C  0.19816652  0.10540851  0.53578745    -0.18300
C1578       C  0.20219268  0.09136075  0.54405538    -0.08200
C1579       C  0.20971559  0.14048275  0.52696766    -0.18500
C1580       C  0.19562579  0.13884171  0.51093852    -0.23300
C1581       C  0.19486049  0.15554265  0.50015423     0.27100
C1582       C  0.18347091  0.15325542  0.47760358    -0.20100
C1583       C  0.18313163  0.16872663  0.46608880    -0.09700
C1584       C  0.19422625  0.18694016  0.47684395    -0.10300
C1585       C  0.20513865  0.18912488  0.49989842    -0.03200
C1586       C  0.20533712  0.17368237  0.51153475    -0.18300
H1587       H  0.24858328  0.11996763  0.56033879     0.10800
H1588       H  0.24157650  0.14406228  0.54663202     0.10800
H1589       H  0.18401566  0.10114227  0.52910961     0.10500
H1590       H  0.19121340  0.07666227  0.54301740     0.11600
H1591       H  0.22100817  0.15447408  0.53225569     0.11700
H1592       H  0.18498893  0.12497680  0.50393199     0.13600
H1593       H  0.17506251  0.13949125  0.46851348     0.10100
H1594       H  0.17445268  0.16646656  0.44844610     0.12200
H1595       H  0.21360756  0.20285386  0.50905509     0.08800
H1596       H  0.21369377  0.17618615  0.52953382     0.11600
C1597       C  0.21812585  0.28950013  0.51701631    -0.03000
C1598       C  0.21675760  0.30579176  0.51420102    -0.05600
C1599       C  0.22431665  0.31990298  0.53369538    -0.20700
C1600       C  0.23296520  0.31786966  0.55681023     0.25000
C1601       C  0.23408297  0.30144529  0.56001651    -0.18300
C1602       C  0.22688533  0.28745975  0.54012782    -0.08200
C1603       C  0.24147608  0.33355902  0.57643705    -0.18500
C1604       C  0.24152023  0.33080402  0.60311134    -0.23300
C1605       C  0.24928559  0.34664471  0.62249900     0.27100
C1606       C  0.24033101  0.34409960  0.64736036    -0.20100
C1607       C  0.24738620  0.35870612  0.66612973    -0.09700
C1608       C  0.26388978  0.37598385  0.66071896    -0.10300
C1609       C  0.27303888  0.37847946  0.63596567    -0.03200
C1610       C  0.26569560  0.36400140  0.61688763    -0.18300
H1611       H  0.21028592  0.30789742  0.49649693     0.10800
H1612       H  0.22339928  0.33247568  0.53071446     0.10800
H1613       H  0.24100575  0.29966906  0.57744098     0.10500
H1614       H  0.22822292  0.27510927  0.54275966     0.11600
H1615       H  0.24672806  0.34777065  0.56879615     0.11700
H1616       H  0.23448148  0.31651190  0.61109008     0.13600
H1617       H  0.22775871  0.33080965  0.65218214     0.10100
H1618       H  0.24020212  0.35629817  0.68521418     0.12200
H1619       H  0.28585713  0.39160521  0.63139171     0.08800
H1620       H  0.27310638  0.36621763  0.59805783     0.11600
C1621       C  0.37381574  0.48620644  0.00181324    -0.03000
C1622       C  0.38295126  0.48216194  0.98140736    -0.05600
C1623       C  0.37873881  0.48297940  0.95440478    -0.20700
C1624       C  0.36497261  0.48745197  0.94696946     0.25000
C1625       C  0.35641295  0.49244018  0.96730030    -0.18300
C1626       C  0.36095117  0.49197146  0.99454331    -0.08200
C1627       C  0.35945400  0.48540313  0.91801721    -0.18500
C1628       C  0.34294163  0.48291110  0.90848386    -0.23300
C1629       C  0.33622895  0.47584105  0.88071051     0.27100
C1630       C  0.32424854  0.48066556  0.86697089    -0.20100
C1631       C  0.31665785  0.47280352  0.84169943    -0.09700
C1632       C  0.32049542  0.45954712  0.83018155    -0.10300
C1633       C  0.33254160  0.45484515  0.84389507    -0.03200
C1634       C  0.34034885  0.46290065  0.86873302    -0.18300
H1635       H  0.39314893  0.47795804  0.98639016     0.10800
H1636       H  0.38571674  0.47925728  0.93928054     0.10800
H1637       H  0.34605031  0.49639261  0.96238407     0.10500
H1638       H  0.35381338  0.49528224  0.00991842     0.11600
H1639       H  0.36876693  0.48397378  0.90405345     0.11700
H1640       H  0.33351773  0.48483032  0.92150356     0.13600
H1641       H  0.32062700  0.49037539  0.87592944     0.10100
H1642       H  0.30725695  0.47652755  0.83166941     0.12200
H1643       H  0.33572327  0.44464322  0.83555192     0.08800
H1644       H  0.34896960  0.45830180  0.87901205     0.11600
C1645       C  0.28043669  0.26717334  0.07371219    -0.03000
C1646       C  0.28099856  0.27688794  0.05001062    -0.05600
C1647       C  0.29042552  0.29658188  0.04943329    -0.20700
C1648       C  0.29930038  0.30709885  0.07257331     0.25000
C1649       C  0.29884877  0.29744273  0.09633614    -0.18300
C1650       C  0.28952201  0.27768948  0.09686811    -0.08200
C1651       C  0.30949530  0.32805580  0.07070699    -0.18500
C1652       C  0.31266577  0.33937314  0.09197618    -0.23300
C1653       C  0.32303888  0.36037616  0.09032029     0.27100
C1654       C  0.32093737  0.37048318  0.11131369    -0.20100
C1655       C  0.33128207  0.39020321  0.11156376    -0.09700
C1656       C  0.34412229  0.40036344  0.09083724    -0.10300
C1657       C  0.34597410  0.39028286  0.06951274    -0.03200
C1658       C  0.33563111  0.37052959  0.06928209    -0.18300
H1659       H  0.27432007  0.26928169  0.03171517     0.10800
H1660       H  0.29072204  0.30364195  0.03080509     0.10800
H1661       H  0.30601581  0.30505672  0.11437605     0.10500
H1662       H  0.28950811  0.27066529  0.11538009     0.11600
H1663       H  0.31368434  0.33420554  0.05077612     0.11700
H1664       H  0.30691027  0.33304206  0.11142795     0.13600
H1665       H  0.31141482  0.36307860  0.12781595     0.10100
H1666       H  0.32948194  0.39746853  0.12834552     0.12200
H1667       H  0.35584520  0.39763533  0.05335553     0.08800
H1668       H  0.33809711  0.36337323  0.05304861     0.11600
C1669       C  0.45457067  0.30201481  0.67128007    -0.03000
C1670       C  0.44104315  0.29422224  0.65064281    -0.05600
C1671       C  0.44556954  0.30084492  0.62430588    -0.20700
C1672       C  0.46373186  0.31550832  0.61770586     0.25000
C1673       C  0.47772700  0.32266704  0.63798013    -0.18300
C1674       C  0.47317409  0.31585537  0.66459630    -0.08200
C1675       C  0.46639607  0.32402328  0.59035756    -0.18500
C1676       C  0.48304165  0.33586417  0.57851459    -0.23300
C1677       C  0.48369146  0.34496119  0.55216382     0.27100
C1678       C  0.49728645  0.34787012  0.53276152    -0.20100
C1679       C  0.49747015  0.35591856  0.50762392    -0.09700
C1680       C  0.48424988  0.36152112  0.50165035    -0.10300
C1681       C  0.47107449  0.35910748  0.52152680    -0.03200
C1682       C  0.47080577  0.35097479  0.54637251    -0.18300
H1683       H  0.42665942  0.28334223  0.65504986     0.10800
H1684       H  0.43453038  0.29495658  0.60917323     0.10800
H1685       H  0.49184917  0.33410457  0.63373565     0.10500
H1686       H  0.48386977  0.32212494  0.68013818     0.11600
H1687       H  0.45356173  0.32034592  0.57922474     0.11700
H1688       H  0.49619769  0.33862165  0.58772490     0.13600
H1689       H  0.50749477  0.34353840  0.53684500     0.10100
H1690       H  0.50785630  0.35763133  0.49284357     0.12200
H1691       H  0.46076586  0.36336712  0.51786314     0.08800
H1692       H  0.46052477  0.34951679  0.56116553     0.11600
C1693       C  0.45685111  0.21551934  0.28417882    -0.03000
C1694       C  0.44560073  0.22289539  0.27559951    -0.05600
C1695       C  0.45024697  0.24114946  0.28255984    -0.20700
C1696       C  0.46594096  0.25231140  0.29894826     0.25000
C1697       C  0.47766527  0.24518777  0.30686579    -0.18300
C1698       C  0.47319775  0.22692558  0.29932143    -0.08200
C1699       C  0.46900924  0.27096439  0.30759831    -0.18500
C1700       C  0.47767262  0.27961556  0.33069398    -0.23300
C1701       C  0.47804377  0.29684480  0.34083556     0.27100
C1702       C  0.49221580  0.30864292  0.35905328    -0.20100
C1703       C  0.49255322  0.32450772  0.36984133    -0.09700
C1704       C  0.47858088  0.32887562  0.36285210    -0.10300
C1705       C  0.46429256  0.31696660  0.34477627    -0.03200
C1706       C  0.46396883  0.30113076  0.33398805    -0.18300
H1707       H  0.43292374  0.21432359  0.26389932     0.10800
H1708       H  0.44106849  0.24629514  0.27597854     0.10800
H1709       H  0.49014442  0.25356656  0.31896132     0.10500
H1710       H  0.48200510  0.22143647  0.30625337     0.11600
H1711       H  0.46257947  0.27709566  0.29517404     0.11700
H1712       H  0.48435270  0.27371993  0.34308005     0.13600
H1713       H  0.50308015  0.30556699  0.36497826     0.10100
H1714       H  0.50371406  0.33328030  0.38381789     0.12200
H1715       H  0.45314998  0.31971325  0.33921208     0.08800
H1716       H  0.45234671  0.29204973  0.32089843     0.11600
C1717       C  0.46364958  0.41016730  0.31672645    -0.03000
C1718       C  0.47592096  0.42891365  0.30859178    -0.05600
C1719       C  0.47083671  0.43696878  0.28778458    -0.20700
C1720       C  0.45326687  0.42660231  0.27497188     0.25000
C1721       C  0.44130967  0.40758072  0.28226377    -0.18300
C1722       C  0.44648404  0.39944321  0.30292648    -0.08200
C1723       C  0.44801550  0.43605309  0.25398346    -0.18500
C1724       C  0.42998253  0.43114286  0.24870988    -0.23300
C1725       C  0.42407290  0.44023809  0.22784140     0.27100
C1726       C  0.40476163  0.43409678  0.22531893    -0.20100
C1727       C  0.39825413  0.44129650  0.20507918    -0.09700
C1728       C  0.41095315  0.45487856  0.18685506    -0.10300
C1729       C  0.43032988  0.46145972  0.18982532    -0.03200
C1730       C  0.43683531  0.45423147  0.20997859    -0.18300
H1731       H  0.48932330  0.43750621  0.31868665     0.10800
H1732       H  0.48042544  0.45154221  0.28223596     0.10800
H1733       H  0.42795943  0.39895174  0.27211415     0.10500
H1734       H  0.43677269  0.38495089  0.30867405     0.11600
H1735       H  0.45955603  0.44796972  0.24383047     0.11700
H1736       H  0.41881714  0.41993000  0.26053868     0.13600
H1737       H  0.39458022  0.42339090  0.23876823     0.10100
H1738       H  0.38322915  0.43590323  0.20335989     0.12200
H1739       H  0.44051203  0.47191096  0.17611121     0.08800
H1740       H  0.45181071  0.45948289  0.21081829     0.11600
C1741       C  0.27045015  0.27894632  0.41813601    -0.03000
C1742       C  0.27915612  0.28966003  0.39491345    -0.05600
C1743       C  0.29874137  0.29865750  0.39176320    -0.20700
C1744       C  0.31012761  0.29736869  0.41183198     0.25000
C1745       C  0.30142200  0.28632819  0.43483499    -0.18300
C1746       C  0.28181714  0.27725602  0.43794821    -0.08200
C1747       C  0.33093072  0.30750386  0.40782712    -0.18500
C1748       C  0.34346149  0.31336572  0.42829379    -0.23300
C1749       C  0.36427672  0.32448920  0.42438921     0.27100
C1750       C  0.37569705  0.33597062  0.44544919    -0.20100
C1751       C  0.39531371  0.34676442  0.44259565    -0.09700
C1752       C  0.40400668  0.34615583  0.41865684    -0.10300
C1753       C  0.39259193  0.33440607  0.39771207    -0.03200
C1754       C  0.37296866  0.32366406  0.40054157    -0.18300
H1755       H  0.27085392  0.29119735  0.37917930     0.10800
H1756       H  0.30505880  0.30691203  0.37373383     0.10800
H1757       H  0.30963815  0.28447340  0.45034687     0.10500
H1758       H  0.27558212  0.26897626  0.45597437     0.11600
H1759       H  0.33600440  0.31138571  0.38734981     0.11700
H1760       H  0.33835682  0.31105257  0.44885156     0.13600
H1761       H  0.36939393  0.33674660  0.46411389     0.10100
H1762       H  0.40366123  0.35556906  0.45919071     0.12200
H1763       H  0.39881525  0.33346146  0.37907941     0.08800
H1764       H  0.36474714  0.31454545  0.38415823     0.11600
C1765       C  0.58202055  0.45712640  0.87347169    -0.03000
C1766       C  0.57449705  0.45527375  0.84746922    -0.05600
C1767       C  0.56365586  0.43754517  0.83577403    -0.20700
C1768       C  0.55958883  0.42116651  0.85004637     0.25000
C1769       C  0.56747234  0.42294758  0.87589851    -0.18300
C1770       C  0.57879311  0.44084721  0.88741122    -0.08200
C1771       C  0.54674147  0.40261205  0.83735068    -0.18500
C1772       C  0.53424403  0.38735026  0.85148269    -0.23300
C1773       C  0.51887628  0.37000006  0.83853705     0.27100
C1774       C  0.50176159  0.35943926  0.85232273    -0.20100
C1775       C  0.48646783  0.34379185  0.84029482    -0.09700
C1776       C  0.48800918  0.33805951  0.81431113    -0.10300
C1777       C  0.50541014  0.34813477  0.80088299    -0.03200
C1778       C  0.52067542  0.36400896  0.81280512    -0.18300
H1779       H  0.57695969  0.46762220  0.83614827     0.10800
H1780       H  0.55790498  0.43659115  0.81579675     0.10800
H1781       H  0.56491172  0.41057235  0.88718701     0.10500
H1782       H  0.58450670  0.44193439  0.90743707     0.11600
H1783       H  0.54592457  0.40225672  0.81553500     0.11700
H1784       H  0.53383979  0.38838121  0.87321482     0.13600
H1785       H  0.50002819  0.36363218  0.87221657     0.10100
H1786       H  0.47334820  0.33623350  0.85133691     0.12200
H1787       H  0.50709392  0.34401287  0.78092107     0.08800
H1788       H  0.53382375  0.37152120  0.80185808     0.11600
C1789       C  0.44670407  0.47700739  0.05157295    -0.03000
C1790       C  0.44481004  0.46764453  0.02718462    -0.05600
C1791       C  0.46078385  0.47104510  0.01267998    -0.20700
C1792       C  0.47899786  0.48395542  0.02207067     0.25000
C1793       C  0.48091367  0.49281358  0.04697171    -0.18300
C1794       C  0.46495179  0.48942189  0.06147002    -0.08200
C1795       C  0.49554024  0.48760282  0.00544836    -0.18500
C1796       C  0.51253646  0.50358292  0.00698111    -0.23300
C1797       C  0.52905206  0.50764682  0.98994731     0.27100
C1798       C  0.54712769  0.52175182  0.99824524    -0.20100
C1799       C  0.56306749  0.52623819  0.98282228    -0.09700
C1800       C  0.56128750  0.51678044  0.95857253    -0.10300
C1801       C  0.54316798  0.50284171  0.95004674    -0.03200
C1802       C  0.52723616  0.49836442  0.96545437    -0.18300
H1803       H  0.43097751  0.45794885  0.01900935     0.10800
H1804       H  0.45889052  0.46385084  0.99373691     0.10800
H1805       H  0.49465936  0.50228107  0.05550395     0.10500
H1806       H  0.46693398  0.49669180  0.08035684     0.11600
H1807       H  0.49329785  0.47683979  0.99101155     0.11700
H1808       H  0.51464701  0.51433582  0.02137143     0.13600
H1809       H  0.54894878  0.52925974  0.01687033     0.10100
H1810       H  0.57679445  0.53706736  0.98998389     0.12200
H1811       H  0.54125093  0.49538404  0.93135515     0.08800
H1812       H  0.51358593  0.48786828  0.95773676     0.11600
C1813       C  0.46061066  0.57729862  0.62070943    -0.03000
C1814       C  0.44714386  0.58302534  0.61972240    -0.05600
C1815       C  0.42855735  0.57077058  0.62843742    -0.20700
C1816       C  0.42306007  0.55250989  0.63772522     0.25000
C1817       C  0.43653734  0.54681909  0.63838944    -0.18300
C1818       C  0.45497709  0.55899613  0.62996571    -0.08200
C1819       C  0.40365785  0.53987517  0.64823445    -0.18500
C1820       C  0.39521718  0.52095379  0.64647097    -0.23300
C1821       C  0.37712983  0.50723096  0.65963265     0.27100
C1822       C  0.36788511  0.48851787  0.65064533    -0.20100
C1823       C  0.35217600  0.47446046  0.66422390    -0.09700
C1824       C  0.34527699  0.47869996  0.68733338    -0.10300
C1825       C  0.35412177  0.49756120  0.69595185    -0.03200
C1826       C  0.36996144  0.51171119  0.68229564    -0.18300
H1827       H  0.45106834  0.59705795  0.61282631     0.10800
H1828       H  0.41847337  0.57555393  0.62799751     0.10800
H1829       H  0.43306758  0.53312671  0.64622472     0.10500
H1830       H  0.46492802  0.55405853  0.63106243     0.11600
H1831       H  0.39636377  0.54627605  0.65753958     0.11700
H1832       H  0.40205446  0.51500103  0.63476994     0.13600
H1833       H  0.37312308  0.48463747  0.63333763     0.10100
H1834       H  0.34565396  0.46013820  0.65685693     0.12200
H1835       H  0.34921304  0.50127276  0.71376876     0.08800
H1836       H  0.37695320  0.52589537  0.69019884     0.11600
C1837       C  0.53168825  0.67586121  0.64621089    -0.03000
C1838       C  0.54410820  0.68453112  0.66795422    -0.05600
C1839       C  0.54581242  0.70058282  0.68001265    -0.20700
C1840       C  0.53510621  0.70843946  0.67090378     0.25000
C1841       C  0.52214739  0.69950273  0.64973434    -0.18300
C1842       C  0.52045279  0.68333351  0.63751330    -0.08200
C1843       C  0.53968351  0.72703957  0.68204225    -0.18500
C1844       C  0.52841745  0.73454132  0.68106958    -0.23300
C1845       C  0.53553838  0.75431648  0.68990690     0.27100
C1846       C  0.52372165  0.75938566  0.70323403    -0.20100
C1847       C  0.53077775  0.77803913  0.71199034    -0.09700
C1848       C  0.54969268  0.79198091  0.70708244    -0.10300
C1849       C  0.56120515  0.78685463  0.69299064    -0.03200
C1850       C  0.55425234  0.76836987  0.68453766    -0.18300
H1851       H  0.55291028  0.67916777  0.67537740     0.10800
H1852       H  0.55595172  0.70719357  0.69618382     0.10800
H1853       H  0.51393341  0.70538876  0.64183083     0.10500
H1854       H  0.51079122  0.67704395  0.62076347     0.11600
H1855       H  0.55343167  0.73517706  0.69161943     0.11700
H1856       H  0.51394484  0.72619637  0.67404371     0.13600
H1857       H  0.50916446  0.74884642  0.70731638     0.10100
H1858       H  0.52149750  0.78151454  0.72264512     0.12200
H1859       H  0.57577989  0.79714204  0.68853688     0.08800
H1860       H  0.56357496  0.76513288  0.67351351     0.11600
C1861       C  0.48314408  0.44636120  0.45266943    -0.03000
C1862       C  0.49255117  0.46343267  0.43817783    -0.05600
C1863       C  0.49707940  0.48046862  0.45032323    -0.20700
C1864       C  0.49259712  0.48095929  0.47733952     0.25000
C1865       C  0.48256491  0.46384938  0.49168198    -0.18300
C1866       C  0.47785395  0.44670193  0.47941350    -0.08200
C1867       C  0.49863812  0.49960236  0.48960753    -0.18500
C1868       C  0.50276759  0.50327395  0.51592646    -0.23300
C1869       C  0.50962911  0.52215542  0.52808357     0.27100
C1870       C  0.50710295  0.52317593  0.55576213    -0.20100
C1871       C  0.51287095  0.54051191  0.56799947    -0.09700
C1872       C  0.52158432  0.55734375  0.55289500    -0.10300
C1873       C  0.52479570  0.55645262  0.52536381    -0.03200
C1874       C  0.51888521  0.53904969  0.51305158    -0.18300
H1875       H  0.49671593  0.46370713  0.41747137     0.10800
H1876       H  0.50459320  0.49340613  0.43874608     0.10800
H1877       H  0.47831353  0.46363853  0.51230217     0.10500
H1878       H  0.47047004  0.43378952  0.49104221     0.11600
H1879       H  0.50050041  0.51082234  0.47608367     0.11700
H1880       H  0.50089272  0.49198294  0.52934402     0.13600
H1881       H  0.50029297  0.51045092  0.56790359     0.10100
H1882       H  0.51034076  0.54069466  0.58932465     0.12200
H1883       H  0.53157907  0.56916939  0.51322648     0.08800
H1884       H  0.52176743  0.53898416  0.49187163     0.11600
C1885       C  0.59195783  0.54294552  0.81994206    -0.03000
C1886       C  0.57227196  0.53507672  0.81851589    -0.05600
C1887       C  0.56421080  0.54088355  0.79863464    -0.20700
C1888       C  0.57560020  0.55482439  0.77990127     0.25000
C1889       C  0.59527446  0.56239177  0.78083674    -0.18300
C1890       C  0.60335633  0.55653228  0.80069868    -0.08200
C1891       C  0.56639895  0.56078333  0.75943327    -0.18500
C1892       C  0.57517952  0.57792845  0.74764688    -0.23300
C1893       C  0.56616397  0.58421646  0.72728264     0.27100
C1894       C  0.57453825  0.60359221  0.72185370    -0.20100
C1895       C  0.56728266  0.61015177  0.70179055    -0.09700
C1896       C  0.55151328  0.59743489  0.68651478    -0.10300
C1897       C  0.54286780  0.57804690  0.69228789    -0.03200
C1898       C  0.55013246  0.57148378  0.71234723    -0.18300
H1899       H  0.56304758  0.52453343  0.83295195     0.10800
H1900       H  0.54901817  0.53468105  0.79817613     0.10800
H1901       H  0.60447226  0.57269470  0.76616125     0.10500
H1902       H  0.61854751  0.56278191  0.80112323     0.11600
H1903       H  0.55159418  0.55104630  0.75526673     0.11700
H1904       H  0.58945420  0.58818641  0.75383506     0.13600
H1905       H  0.58693027  0.61370789  0.73294605     0.10100
H1906       H  0.57435193  0.62516716  0.69779250     0.12200
H1907       H  0.53078969  0.56784766  0.68075587     0.08800
H1908       H  0.54348491  0.55641631  0.71530392     0.11600
C1909       C  0.55462561  0.69347110  0.32995543    -0.03000
C1910       C  0.53539000  0.68664719  0.33511308    -0.05600
C1911       C  0.52778399  0.67964170  0.36077462    -0.20700
C1912       C  0.53932229  0.67965687  0.38180452     0.25000
C1913       C  0.55847626  0.68635933  0.37643368    -0.18300
C1914       C  0.56598770  0.69320410  0.35103404    -0.08200
C1915       C  0.53123423  0.67156354  0.40876065    -0.18500
C1916       C  0.54181983  0.67797901  0.43128110    -0.23300
C1917       C  0.53716436  0.66794959  0.45760904     0.27100
C1918       C  0.55237564  0.67089267  0.47393543    -0.20100
C1919       C  0.54936044  0.66119235  0.49813334    -0.09700
C1920       C  0.53100320  0.64860147  0.50714761    -0.10300
C1921       C  0.51557519  0.64610055  0.49152900    -0.03200
C1922       C  0.51862952  0.65555034  0.46666117    -0.18300
H1923       H  0.52621313  0.68653633  0.31930551     0.10800
H1924       H  0.51291169  0.67426710  0.36423966     0.10800
H1925       H  0.56770138  0.68587849  0.39164453     0.10500
H1926       H  0.58081691  0.69816789  0.34793022     0.11600
H1927       H  0.51698622  0.65952926  0.40969319     0.11700
H1928       H  0.55581187  0.69039503  0.42972011     0.13600
H1929       H  0.56677562  0.68039518  0.46757205     0.10100
H1930       H  0.56150311  0.66356054  0.50991849     0.12200
H1931       H  0.50128050  0.63649732  0.49815527     0.08800
H1932       H  0.50658600  0.65320756  0.45471419     0.11600
C1933       C  0.53071063  0.66116254  0.18850515    -0.03000
C1934       C  0.53444402  0.65257629  0.16694334    -0.05600
C1935       C  0.52006867  0.63602698  0.15550233    -0.20700
C1936       C  0.50151640  0.62760337  0.16508466     0.25000
C1937       C  0.49750965  0.63641138  0.18613082    -0.18300
C1938       C  0.51199954  0.65307893  0.19769864    -0.08200
C1939       C  0.48744896  0.60882391  0.15416612    -0.18500
C1940       C  0.46855199  0.60094667  0.15550504    -0.23300
C1941       C  0.45566778  0.58144049  0.14564418     0.27100
C1942       C  0.43817192  0.57656969  0.13394398    -0.20100
C1943       C  0.42615328  0.55823934  0.12424292    -0.09700
C1944       C  0.43133454  0.54439624  0.12650146    -0.10300
C1945       C  0.44866341  0.54927164  0.13884271    -0.03200
C1946       C  0.46061585  0.56747791  0.14831543    -0.18300
H1947       H  0.54862487  0.65841438  0.15920111     0.10800
H1948       H  0.52357214  0.62953518  0.13938280     0.10800
H1949       H  0.48344151  0.63011443  0.19440726     0.10500
H1950       H  0.50866613  0.65927708  0.21438302     0.11600
H1951       H  0.49312185  0.60111761  0.14401280     0.11700
H1952       H  0.46242386  0.60898252  0.16312840     0.13600
H1953       H  0.43393815  0.58702553  0.13196687     0.10100
H1954       H  0.41282402  0.55489831  0.11510245     0.12200
H1955       H  0.45307394  0.53897820  0.14127972     0.08800
H1956       H  0.47365925  0.57050872  0.15809298     0.11600
C1957       C  0.52961294  0.85058573  0.14922134    -0.03000
C1958       C  0.51844285  0.83230969  0.13871000    -0.05600
C1959       C  0.51902255  0.81697312  0.15014959    -0.20700
C1960       C  0.53084465  0.81954203  0.17221353     0.25000
C1961       C  0.54122883  0.83764874  0.18361231    -0.18300
C1962       C  0.54069692  0.85295348  0.17216829    -0.08200
C1963       C  0.53255297  0.80329697  0.18221803    -0.18500
C1964       C  0.54837768  0.80574727  0.19426753    -0.23300
C1965       C  0.55213004  0.79032809  0.20132909     0.27100
C1966       C  0.57103409  0.79510400  0.20357629    -0.20100
C1967       C  0.57575068  0.78149879  0.20988836    -0.09700
C1968       C  0.56168891  0.76262763  0.21459297    -0.10300
C1969       C  0.54264190  0.75775161  0.21297470    -0.03200
C1970       C  0.53787174  0.77148523  0.20622664    -0.18300
H1971       H  0.50958631  0.82990948  0.12123012     0.10800
H1972       H  0.51067609  0.80316441  0.14116545     0.10800
H1973       H  0.54988864  0.84014641  0.20131863     0.10500
H1974       H  0.54922857  0.86673456  0.18114027     0.11600
H1975       H  0.52136101  0.78915253  0.17719196     0.11700
H1976       H  0.56013537  0.81999738  0.19693846     0.13600
H1977       H  0.58231261  0.80948061  0.20012938     0.10100
H1978       H  0.59058045  0.78589806  0.21127269     0.12200
H1979       H  0.53150039  0.74336678  0.21666767     0.08800
H1980       H  0.52312452  0.76738115  0.20522160     0.11600
C1981       C  0.63814790  0.77686032  0.29049139    -0.03000
C1982       C  0.64411925  0.77504668  0.31631373    -0.05600
C1983       C  0.65525560  0.79098394  0.33198479    -0.20700
C1984       C  0.66047366  0.80905508  0.32239524     0.25000
C1985       C  0.65479873  0.81096321  0.29637602    -0.18300
C1986       C  0.64374342  0.79502121  0.28060865    -0.08200
C1987       C  0.67239393  0.82554582  0.33974999    -0.18500
C1988       C  0.67223067  0.84183270  0.33846422    -0.23300
C1989       C  0.68441639  0.85854340  0.35545636     0.27100
C1990       C  0.68764239  0.87627501  0.34710380    -0.20100
C1991       C  0.69959775  0.89250091  0.36179661    -0.09700
C1992       C  0.70846405  0.89132187  0.38538101    -0.10300
C1993       C  0.70474021  0.87350143  0.39427086    -0.03200
C1994       C  0.69280935  0.85728818  0.37957104    -0.18300
H1995       H  0.64006030  0.76128487  0.32455751     0.10800
H1996       H  0.65960507  0.78917123  0.35185606     0.10800
H1997       H  0.65907520  0.82471732  0.28795483     0.10500
H1998       H  0.63945846  0.79692948  0.26075253     0.11600
H1999       H  0.68134109  0.82388471  0.35425461     0.11700
H2000       H  0.66310259  0.84323835  0.32394044     0.13600
H2001       H  0.68119855  0.87764095  0.32881179     0.10100
H2002       H  0.70209475  0.90600204  0.35444733     0.12200
H2003       H  0.71124609  0.87207481  0.41244958     0.08800
H2004       H  0.69020681  0.84389148  0.38739183     0.11600
C2005       C  0.81417457  0.99369228  0.02183517    -0.03000
C2006       C  0.82570954  0.98687583  0.03157102    -0.05600
C2007       C  0.82556701  0.97154924  0.01922731    -0.20700
C2008       C  0.81406310  0.96274782  0.99671553     0.25000
C2009       C  0.80264236  0.96972305  0.98682303    -0.18300
C2010       C  0.80275053  0.98499681  0.99920667    -0.08200
C2011       C  0.81345138  0.94564330  0.98547274    -0.18500
C2012       C  0.80543142  0.93778196  0.96169860    -0.23300
C2013       C  0.80192524  0.91901040  0.95311512     0.27100
C2014       C  0.78523677  0.90728015  0.93895209    -0.20100
C2015       C  0.78033547  0.88887230  0.93252059    -0.09700
C2016       C  0.79230183  0.88194154  0.93934804    -0.10300
C2017       C  0.80959454  0.89396281  0.95209854    -0.03200
C2018       C  0.81431381  0.91235818  0.95920671    -0.18300
H2019       H  0.83463701  0.99318051  0.04902279     0.10800
H2020       H  0.83437094  0.96642279  0.02749596     0.10800
H2021       H  0.79312808  0.96321851  0.97006875     0.10500
H2022       H  0.79365997  0.98984822  0.99118629     0.11600
H2023       H  0.81909170  0.93875985  0.99798532     0.11700
H2024       H  0.79954965  0.94428298  0.94897882     0.13600
H2025       H  0.77553804  0.91210709  0.93385728     0.10100
H2026       H  0.76693943  0.87985376  0.92263383     0.12200
H2027       H  0.81898782  0.88885796  0.95764477     0.08800
H2028       H  0.82749777  0.92125545  0.96961052     0.11600
C2029       C  0.72709688  0.73483858  0.92523086    -0.03000
C2030       C  0.72815589  0.72482255  0.94760449    -0.05600
C2031       C  0.71769324  0.70508766  0.94837564    -0.20700
C2032       C  0.70601081  0.69476072  0.92675563     0.25000
C2033       C  0.70484972  0.70474546  0.90436454    -0.18300
C2034       C  0.71529963  0.72452659  0.90361459    -0.08200
C2035       C  0.69498621  0.67371814  0.92873514    -0.18500
C2036       C  0.68832517  0.66224147  0.90718458    -0.23300
C2037       C  0.67806250  0.64120569  0.90875220     0.27100
C2038       C  0.67756455  0.63116942  0.88574514    -0.20100
C2039       C  0.66799244  0.61146039  0.88586489    -0.09700
C2040       C  0.65840609  0.60114902  0.90897180    -0.10300
C2041       C  0.65869135  0.61114427  0.93201488    -0.03200
C2042       C  0.66841687  0.63095335  0.93194419    -0.18300
H2043       H  0.73696725  0.73223499  0.96473616     0.10800
H2044       H  0.71879009  0.69784514  0.96596148     0.10800
H2045       H  0.69560824  0.69742829  0.88759702     0.10500
H2046       H  0.71395946  0.73174575  0.88619957     0.11600
H2047       H  0.69330164  0.66756198  0.94863286     0.11700
H2048       H  0.69144970  0.66843296  0.88718664     0.13600
H2049       H  0.68470048  0.63862973  0.86753371     0.10100
H2050       H  0.66796484  0.60430049  0.86764532     0.12200
H2051       H  0.65131111  0.60366293  0.95007032     0.08800
H2052       H  0.66799537  0.63809469  0.94988211     0.11600
C2053       C  0.72697219  0.79743553  0.01892836    -0.03000
C2054       C  0.71890692  0.80845886  0.02528470    -0.05600
C2055       C  0.70578502  0.80308666  0.04611675    -0.20700
C2056       C  0.70020150  0.78644809  0.06078054     0.25000
C2057       C  0.70891587  0.77587468  0.05527664    -0.18300
C2058       C  0.72216590  0.78132905  0.03457287    -0.08200
C2059       C  0.68538326  0.78065597  0.08171282    -0.18500
C2060       C  0.67379904  0.76251381  0.08899797    -0.23300
C2061       C  0.65873036  0.75618645  0.10975850     0.27100
C2062       C  0.64517900  0.73688341  0.11153188    -0.20100
C2063       C  0.63144952  0.73002532  0.13171977    -0.09700
C2064       C  0.63094358  0.74234245  0.15070011    -0.10300
C2065       C  0.64422821  0.76172800  0.14858117    -0.03200
C2066       C  0.65801263  0.76857510  0.12848669    -0.18300
H2067       H  0.72240112  0.82102829  0.01374367     0.10800
H2068       H  0.69953260  0.81165339  0.05023569     0.10800
H2069       H  0.70552051  0.76335854  0.06683617     0.10500
H2070       H  0.72818308  0.77258310  0.03027251     0.11600
H2071       H  0.68334891  0.79164667  0.09000293     0.11700
H2072       H  0.67497825  0.75155562  0.07872084     0.13600
H2073       H  0.64537974  0.72698966  0.09745770     0.10100
H2074       H  0.62145848  0.71501464  0.13275124     0.12200
H2075       H  0.64435725  0.77160926  0.16298619     0.08800
H2076       H  0.66834165  0.78347089  0.12840586     0.11600
C2077       C  0.70777793  0.81333859  0.88204232    -0.03000
C2078       C  0.69956362  0.82184302  0.89683846    -0.05600
C2079       C  0.68715142  0.82651537  0.88457813    -0.20700
C2080       C  0.68274569  0.82302193  0.85715403     0.25000
C2081       C  0.69036841  0.81381022  0.84250380    -0.18300
C2082       C  0.70276388  0.80902638  0.85486545    -0.08200
C2083       C  0.67017322  0.82923572  0.84495391    -0.18500
C2084       C  0.66886382  0.83151897  0.81832680    -0.23300
C2085       C  0.65636483  0.83788537  0.80650845     0.27100
C2086       C  0.64936300  0.83204306  0.78041418    -0.20100
C2087       C  0.63755643  0.83761447  0.76839878    -0.09700
C2088       C  0.63266869  0.84944842  0.78205530    -0.10300
C2089       C  0.64002572  0.85569014  0.80800951    -0.03200
C2090       C  0.65174875  0.84995651  0.82015420    -0.18300
H2091       H  0.70297264  0.82520597  0.91790852     0.10800
H2092       H  0.68132158  0.83332826  0.89647098     0.10800
H2093       H  0.68687117  0.81022298  0.82156435     0.10500
H2094       H  0.70879354  0.80240928  0.84298135     0.11600
H2095       H  0.66195544  0.83243500  0.85866868     0.11700
H2096       H  0.67681669  0.82821147  0.80432451     0.13600
H2097       H  0.65284777  0.82290497  0.76938578     0.10100
H2098       H  0.63223400  0.83259193  0.74834097     0.12200
H2099       H  0.63663455  0.86490256  0.81900219     0.08800
H2100       H  0.65737366  0.85522851  0.83998888     0.11600
C2101       C  0.82013107  0.78510157  0.66149346    -0.03000
C2102       C  0.81566993  0.77206858  0.68256987    -0.05600
C2103       C  0.81304453  0.77637918  0.70864065    -0.20700
C2104       C  0.81479203  0.79383560  0.71449502     0.25000
C2105       C  0.82023150  0.80739057  0.69374490    -0.18300
C2106       C  0.82297016  0.80305392  0.66739519    -0.08200
C2107       C  0.80877770  0.79616839  0.74168140    -0.18500
C2108       C  0.81351361  0.81271133  0.75341997    -0.23300
C2109       C  0.80578231  0.81321185  0.78025193     0.27100
C2110       C  0.81702669  0.82716527  0.79905026    -0.20100
C2111       C  0.80997344  0.82723502  0.82471092    -0.09700
C2112       C  0.79140274  0.81350173  0.83187285    -0.10300
C2113       C  0.78005202  0.79991267  0.81264412    -0.03200
C2114       C  0.78711682  0.79978238  0.78722459    -0.18300
H2115       H  0.81352285  0.75816804  0.67867660     0.10800
H2116       H  0.80893545  0.76569866  0.72416754     0.10800
H2117       H  0.82142331  0.82089662  0.69744480     0.10500
H2118       H  0.82620836  0.81327140  0.65143746     0.11600
H2119       H  0.80000973  0.78326179  0.75296912     0.11700
H2120       H  0.82366077  0.82592740  0.74393051     0.13600
H2121       H  0.83139910  0.83776918  0.79407045     0.10100
H2122       H  0.81907891  0.83796808  0.83895111     0.12200
H2123       H  0.76563203  0.78923936  0.81722681     0.08800
H2124       H  0.77786120  0.78918501  0.77293379     0.11600
C2125       C  0.81442158  0.81720240  0.52058733    -0.03000
C2126       C  0.82757966  0.83567089  0.52872241    -0.05600
C2127       C  0.82739244  0.85117169  0.51722597    -0.20700
C2128       C  0.81418696  0.84864822  0.49719874     0.25000
C2129       C  0.80108857  0.83013869  0.48893447    -0.18300
C2130       C  0.80127671  0.81466860  0.50041202    -0.08200
C2131       C  0.81361654  0.86546413  0.48700370    -0.18500
C2132       C  0.80461435  0.86549639  0.46426344    -0.23300
C2133       C  0.80113082  0.88099808  0.45682047     0.27100
C2134       C  0.78426032  0.87620738  0.44337538    -0.20100
C2135       C  0.77933616  0.88982938  0.43814203    -0.09700
C2136       C  0.79142587  0.90870233  0.44550554    -0.10300
C2137       C  0.80888808  0.91387116  0.45749385    -0.03200
C2138       C  0.81365863  0.90005795  0.46337075    -0.18300
H2139       H  0.83788888  0.83816117  0.54423107     0.10800
H2140       H  0.83751618  0.86521172  0.52420539     0.10800
H2141       H  0.79022439  0.82733610  0.47427763     0.10500
H2142       H  0.79085790  0.80065400  0.49373183     0.11600
H2143       H  0.82018593  0.87801477  0.49944807     0.11700
H2144       H  0.79798346  0.85305503  0.45166874     0.13600
H2145       H  0.77445446  0.86169492  0.43789672     0.10100
H2146       H  0.76584356  0.88555178  0.42869611     0.12200
H2147       H  0.81841583  0.92836370  0.46331292     0.08800
H2148       H  0.82700560  0.90427032  0.47315980     0.11600
C2149       C  0.73904874  0.72195908  0.57737978    -0.03000
C2150       C  0.73031292  0.70613070  0.59448777    -0.05600
C2151       C  0.71061873  0.69505151  0.59573367    -0.20700
C2152       C  0.69918100  0.69972811  0.58037599     0.25000
C2153       C  0.70787353  0.71574036  0.56356570    -0.18300
C2154       C  0.72758682  0.72668198  0.56202143    -0.08200
C2155       C  0.67831087  0.68720299  0.58152637    -0.18500
C2156       C  0.66622235  0.69352616  0.57785933    -0.23300
C2157       C  0.64543693  0.68117924  0.58037974     0.27100
C2158       C  0.63499225  0.68874380  0.59117550    -0.20100
C2159       C  0.61542912  0.67758982  0.59403793    -0.09700
C2160       C  0.60577718  0.65874477  0.58539687    -0.10300
C2161       C  0.61613721  0.65124662  0.57389999    -0.03200
C2162       C  0.63583798  0.66231060  0.57165220    -0.18300
H2163       H  0.73869748  0.70199634  0.60642325     0.10800
H2164       H  0.70428183  0.68274474  0.60873083     0.10800
H2165       H  0.69950644  0.71953077  0.55098219     0.10500
H2166       H  0.73385299  0.73872164  0.54854017     0.11600
H2167       H  0.67278113  0.67254422  0.58718282     0.11700
H2168       H  0.67174216  0.70852546  0.57497147     0.13600
H2169       H  0.64204567  0.70327219  0.59782145     0.10100
H2170       H  0.60779725  0.68378671  0.60278204     0.12200
H2171       H  0.60904346  0.63676372  0.56707330     0.08800
H2172       H  0.64349417  0.65620926  0.56272320     0.11600
C2173       C  0.64471393  0.52123493  0.99874197    -0.03000
C2174       C  0.65163020  0.50909217  0.00483421    -0.05600
C2175       C  0.65917728  0.50939337  0.03043880    -0.20700
C2176       C  0.66012449  0.52194862  0.05028313     0.25000
C2177       C  0.65251451  0.53350097  0.04444756    -0.18300
C2178       C  0.64500491  0.53319566  0.01908321    -0.08200
C2179       C  0.66909694  0.52304320  0.07694302    -0.18500
C2180       C  0.67899514  0.53962926  0.08991871    -0.23300
C2181       C  0.68799328  0.54252650  0.11694107     0.27100
C2182       C  0.70164964  0.56101468  0.12389448    -0.20100
C2183       C  0.70897148  0.56537243  0.14989707    -0.09700
C2184       C  0.70280242  0.55137942  0.16997925    -0.10300
C2185       C  0.68978739  0.53259315  0.16287287    -0.03200
C2186       C  0.68236855  0.52818342  0.13653562    -0.18300
H2187       H  0.65149261  0.49960216  0.98972695     0.10800
H2188       H  0.66472277  0.50016884  0.03452882     0.10800
H2189       H  0.65230935  0.54282514  0.05953438     0.10500
H2190       H  0.63949593  0.54249820  0.01541493     0.11600
H2191       H  0.66823229  0.51039004  0.08522800     0.11700
H2192       H  0.68104749  0.55227528  0.07976373     0.13600
H2193       H  0.70632642  0.57234357  0.10928031     0.10100
H2194       H  0.71914591  0.57995169  0.15446761     0.12200
H2195       H  0.68470627  0.52151094  0.17791288     0.08800
H2196       H  0.67168712  0.51379365  0.13199089     0.11600
C2197       C  0.66735218  0.51706105  0.31427255    -0.03000
C2198       C  0.65808760  0.49918657  0.30212327    -0.05600
C2199       C  0.64227875  0.48403739  0.31432995    -0.20700
C2200       C  0.63537758  0.48639502  0.33890567     0.25000
C2201       C  0.64526738  0.50405785  0.35169121    -0.18300
C2202       C  0.66092109  0.51920234  0.33940927    -0.08200
C2203       C  0.61761028  0.47038260  0.35018037    -0.18500
C2204       C  0.60630969  0.47301660  0.36691682    -0.23300
C2205       C  0.58721721  0.45793489  0.37557461     0.27100
C2206       C  0.57430970  0.46342905  0.38307120    -0.20100
C2207       C  0.55590109  0.45004025  0.39015915    -0.09700
C2208       C  0.54990304  0.43071935  0.39042401    -0.10300
C2209       C  0.56297418  0.42510649  0.38410708    -0.03200
C2210       C  0.58150450  0.43861824  0.37655240    -0.18300
H2211       H  0.66275121  0.49701175  0.28285358     0.10800
H2212       H  0.63510417  0.47056072  0.30416097     0.10800
H2213       H  0.64102673  0.50634873  0.37118167     0.10500
H2214       H  0.66794962  0.53266437  0.34962100     0.11600
H2215       H  0.61290914  0.45635700  0.34251079     0.11700
H2216       H  0.61028761  0.48727340  0.37257434     0.13600
H2217       H  0.57833677  0.47817855  0.38278973     0.10100
H2218       H  0.54623920  0.45485452  0.39522255     0.12200
H2219       H  0.55872046  0.41030705  0.38422300     0.08800
H2220       H  0.59124379  0.43391955  0.37154295     0.11600
C2221       C  0.74836300  0.61620746  0.35549774    -0.03000
C2222       C  0.76756485  0.62461097  0.36235064    -0.05600
C2223       C  0.77550283  0.63880116  0.38168378    -0.20700
C2224       C  0.76453046  0.64509255  0.39441207     0.25000
C2225       C  0.74511265  0.63614179  0.38848460    -0.18300
C2226       C  0.73712396  0.62184167  0.36919022    -0.08200
C2227       C  0.77391240  0.66079040  0.41394237    -0.18500
C2228       C  0.76726526  0.67220769  0.42060671    -0.23300
C2229       C  0.77682079  0.68795115  0.44017212     0.27100
C2230       C  0.77158846  0.70176780  0.44102531    -0.20100
C2231       C  0.77944350  0.71615947  0.46020819    -0.09700
C2232       C  0.79274462  0.71702060  0.47891238    -0.10300
C2233       C  0.79829949  0.70347206  0.47762825    -0.03200
C2234       C  0.79033652  0.68903108  0.45872714    -0.18300
H2235       H  0.77660426  0.62052657  0.35233147     0.10800
H2236       H  0.79042019  0.64523956  0.38619862     0.10800
H2237       H  0.73603546  0.64010261  0.39861510     0.10500
H2238       H  0.72225996  0.61557117  0.36447966     0.11600
H2239       H  0.78741417  0.66358325  0.42177847     0.11700
H2240       H  0.75462124  0.67039949  0.41081463     0.13600
H2241       H  0.76116031  0.70125208  0.42707712     0.10100
H2242       H  0.77480222  0.72634339  0.46075581     0.12200
H2243       H  0.80831332  0.70354928  0.49196466     0.08800
H2244       H  0.79442760  0.67846577  0.45957176     0.11600
C2245       C  0.68292817  0.60786907  0.25771912    -0.03000
C2246       C  0.66461594  0.59869867  0.26853988    -0.05600
C2247       C  0.65336431  0.60693226  0.26669443    -0.20700
C2248       C  0.66037830  0.62473853  0.25474942     0.25000
C2249       C  0.67865195  0.63389514  0.24373571    -0.18300
C2250       C  0.68975308  0.62544537  0.24499249    -0.08200
C2251       C  0.64816590  0.63319639  0.25336098    -0.18500
C2252       C  0.65503210  0.65182106  0.25628520    -0.23300
C2253       C  0.64301579  0.66052619  0.25506824     0.27100
C2254       C  0.64839640  0.67698744  0.26982075    -0.20100
C2255       C  0.63800113  0.68614974  0.26799901    -0.09700
C2256       C  0.62225285  0.67929285  0.25081758    -0.10300
C2257       C  0.61680464  0.66275406  0.23611040    -0.03200
C2258       C  0.62699668  0.65338598  0.23833597    -0.18300
H2259       H  0.65894188  0.58507854  0.27829633     0.10800
H2260       H  0.63926433  0.59953678  0.27506540     0.10800
H2261       H  0.68426590  0.64745752  0.23384709     0.10500
H2262       H  0.70380852  0.63282037  0.23648663     0.11600
H2263       H  0.63303176  0.62370391  0.25153818     0.11700
H2264       H  0.66991428  0.66096697  0.26092154     0.13600
H2265       H  0.66074947  0.68282727  0.28270879     0.10100
H2266       H  0.64263526  0.69893105  0.27943517     0.12200
H2267       H  0.60474796  0.65714548  0.22268139     0.08800
H2268       H  0.62269322  0.64094898  0.22625032     0.11600
C2269       C  0.85782533  0.52154285  0.35292876    -0.03000
C2270       C  0.86137346  0.53044132  0.32764296    -0.05600
C2271       C  0.84722115  0.53175389  0.31389338    -0.20700
C2272       C  0.82912771  0.52422651  0.32495492     0.25000
C2273       C  0.82527666  0.51466666  0.34982389    -0.18300
C2274       C  0.83948899  0.51327077  0.36359917    -0.08200
C2275       C  0.81569040  0.52874696  0.31140932    -0.18500
C2276       C  0.79699154  0.52010953  0.31624700    -0.23300
C2277       C  0.78529483  0.52781293  0.30548713     0.27100
C2278       C  0.76609114  0.51575949  0.29933721    -0.20100
C2279       C  0.75487256  0.52316492  0.29042857    -0.09700
C2280       C  0.76261949  0.54278370  0.28819794    -0.10300
C2281       C  0.78181058  0.55473215  0.29442857    -0.03200
C2282       C  0.79297330  0.54738458  0.30292420    -0.18300
H2283       H  0.87525492  0.53677463  0.31865537     0.10800
H2284       H  0.85061619  0.53921811  0.29482526     0.10800
H2285       H  0.81163472  0.50899701  0.35929247     0.10500
H2286       H  0.83631309  0.50634331  0.38305839     0.11600
H2287       H  0.82175791  0.54032351  0.29700831     0.11700
H2288       H  0.79013574  0.50742043  0.32850861     0.13600
H2289       H  0.75978048  0.50063445  0.30149427     0.10100
H2290       H  0.74008415  0.51362242  0.28603446     0.12200
H2291       H  0.78823917  0.56991217  0.29303404     0.08800
H2292       H  0.80751712  0.55716072  0.30832149     0.11600
C2293       C  0.14978671  0.67612683  0.14765527    -0.03000
C2294       C  0.14552875  0.68566623  0.16722564    -0.05600
C2295       C  0.15959759  0.70271785  0.17781156    -0.20700
C2296       C  0.17837763  0.71068787  0.16944703     0.25000
C2297       C  0.18285998  0.70109380  0.15018376    -0.18300
C2298       C  0.16865826  0.68394330  0.13938891    -0.08200
C2299       C  0.19231658  0.72956464  0.18015129    -0.18500
C2300       C  0.21120202  0.73714259  0.18006968    -0.23300
C2301       C  0.22413228  0.75646795  0.19052275     0.27100
C2302       C  0.24169405  0.76107851  0.20176470    -0.20100
C2303       C  0.25389341  0.77924588  0.21186992    -0.09700
C2304       C  0.24878140  0.79315923  0.21056436    -0.10300
C2305       C  0.23130357  0.78850140  0.19892006    -0.03200
C2306       C  0.21923852  0.77051435  0.18890834    -0.18300
H2307       H  0.13118879  0.68015539  0.17410590     0.10800
H2308       H  0.15571284  0.70983497  0.19248202     0.10800
H2309       H  0.19712396  0.70701370  0.14281438     0.10500
H2310       H  0.17239108  0.67699861  0.12425690     0.11600
H2311       H  0.18649784  0.73739962  0.18949835     0.11700
H2312       H  0.21729885  0.72888718  0.17326051     0.13600
H2313       H  0.24588808  0.75055960  0.20294702     0.10100
H2314       H  0.26732225  0.78242704  0.22046984     0.12200
H2315       H  0.22690552  0.79884775  0.19724598     0.08800
H2316       H  0.20621225  0.76781261  0.17945042     0.11600
C2317       C  0.95390913  0.53489162  0.31793010    -0.03000
C2318       C  0.96286772  0.52445263  0.31336401    -0.05600
C2319       C  0.97610739  0.52961090  0.29277393    -0.20700
C2320       C  0.98083451  0.54541660  0.27660017     0.25000
C2321       C  0.97122548  0.55532272  0.28028793    -0.18300
C2322       C  0.95793093  0.55012856  0.30078881    -0.08200
C2323       C  0.99595180  0.55130246  0.25629697    -0.18500
C2324       C  0.00710434  0.56944260  0.24886923    -0.23300
C2325       C  0.02281758  0.57603147  0.22933555     0.27100
C2326       C  0.03638494  0.59533119  0.22850957    -0.20100
C2327       C  0.05077391  0.60244630  0.20938278    -0.09700
C2328       C  0.05185100  0.59038245  0.19053922    -0.10300
C2329       C  0.03858645  0.57097160  0.19181226    -0.03200
C2330       C  0.02415013  0.56386474  0.21087576    -0.18300
H2331       H  0.95998628  0.51254971  0.32608886     0.10800
H2332       H  0.98313024  0.52160411  0.29004282     0.10800
H2333       H  0.97398925  0.56713915  0.26747914     0.10500
H2334       H  0.95114392  0.55834554  0.30359412     0.11600
H2335       H  0.99876734  0.54058516  0.24898753     0.11700
H2336       H  0.00520335  0.58020762  0.25837725     0.13600
H2337       H  0.03567248  0.60501548  0.24245354     0.10100
H2338       H  0.06073563  0.61747809  0.20890679     0.12200
H2339       H  0.03891207  0.56132046  0.17741324     0.08800
H2340       H  0.01377189  0.54898496  0.21030838     0.11600
C2341       C  0.91556688  0.78885314  0.04111624    -0.03000
C2342       C  0.91491854  0.80273026  0.05665232    -0.05600
C2343       C  0.90241748  0.80902658  0.04980326    -0.20700
C2344       C  0.89080731  0.80197234  0.02691506     0.25000
C2345       C  0.89191955  0.78852231  0.01100637    -0.18300
C2346       C  0.90406746  0.78199910  0.01809352    -0.08200
C2347       C  0.87653873  0.80751966  0.02089868    -0.18500
C2348       C  0.87162376  0.80897014  0.99547976    -0.23300
C2349       C  0.85558512  0.81168503  0.98838690     0.27100
C2350       C  0.85614113  0.82060378  0.96397643    -0.20100
C2351       C  0.84041383  0.82139204  0.95494473    -0.09700
C2352       C  0.82356816  0.81283863  0.96983546    -0.10300
C2353       C  0.82310851  0.80420289  0.99457786    -0.03200
C2354       C  0.83900030  0.80373093  0.00386433    -0.18300
H2355       H  0.92350325  0.80814459  0.07461984     0.10800
H2356       H  0.90167292  0.81927418  0.06250432     0.10800
H2357       H  0.88284369  0.78243598  0.99363082     0.10500
H2358       H  0.90421702  0.77128457  0.00572819     0.11600
H2359       H  0.86989079  0.81029324  0.03766389     0.11700
H2360       H  0.87965843  0.80799430  0.97892342     0.13600
H2361       H  0.86868992  0.82666895  0.95158178     0.10100
H2362       H  0.84123618  0.82809419  0.93576649     0.12200
H2363       H  0.81035088  0.79750218  0.00652423     0.08800
H2364       H  0.83797588  0.79637572  0.02248920     0.11600
C2365       C  0.12860217  0.91115321  0.96034067    -0.03000
C2366       C  0.12613173  0.90555300  0.98745796    -0.05600
C2367       C  0.10810918  0.89376252  0.99782002    -0.20700
C2368       C  0.09218007  0.88680907  0.98112536     0.25000
C2369       C  0.09454591  0.89267578  0.95400783    -0.18300
C2370       C  0.11265843  0.90494892  0.94375836    -0.08200
C2371       C  0.07347064  0.87330050  0.99280057    -0.18500
C2372       C  0.05981268  0.85875460  0.97885598    -0.23300
C2373       C  0.04239525  0.84349005  0.99175669     0.27100
C2374       C  0.03395271  0.82522949  0.98112594    -0.20100
C2375       C  0.01818360  0.81025989  0.99349752    -0.09700
C2376       C  0.01028967  0.81324478  0.01665033    -0.10300
C2377       C  0.01834561  0.83168010  0.02676564    -0.03200
C2378       C  0.03424420  0.84664680  0.01448503    -0.18300
H2379       H  0.13823107  0.91024448  0.00065776     0.10800
H2380       H  0.10665329  0.88956363  0.01877700     0.10800
H2381       H  0.08245917  0.88781873  0.94077778     0.10500
H2382       H  0.11426567  0.90906552  0.92276390     0.11600
H2383       H  0.07180062  0.87409728  0.01431817     0.11700
H2384       H  0.06234310  0.85688761  0.95798742     0.13600
H2385       H  0.03986737  0.82243786  0.96355113     0.10100
H2386       H  0.01228970  0.79628754  0.98501650     0.12200
H2387       H  0.01254168  0.83451457  0.04441579     0.08800
H2388       H  0.04006801  0.86064927  0.02278409     0.11600
C2389       C  0.89324766  0.70740510  0.11685555    -0.03000
C2390       C  0.87575145  0.70312462  0.10569844    -0.05600
C2391       C  0.85898481  0.69184580  0.11966771    -0.20700
C2392       C  0.85920657  0.68466291  0.14524622     0.25000
C2393       C  0.87668913  0.68869342  0.15634585    -0.18300
C2394       C  0.89352366  0.69996791  0.14227806    -0.08200
C2395       C  0.84082147  0.67254006  0.15897308    -0.18500
C2396       C  0.83898309  0.66894088  0.18561641    -0.23300
C2397       C  0.82055615  0.65615953  0.19879470     0.27100
C2398       C  0.82053134  0.64724276  0.22295275    -0.20100
C2399       C  0.80357018  0.63454400  0.23556862    -0.09700
C2400       C  0.78615738  0.63058069  0.22445762    -0.10300
C2401       C  0.78617570  0.64003153  0.20076718    -0.03200
C2402       C  0.80318305  0.65271383  0.18807460    -0.18300
H2403       H  0.87496294  0.70852486  0.08609794     0.10800
H2404       H  0.84575635  0.68883581  0.11049388     0.10800
H2405       H  0.87750512  0.68297694  0.17561638     0.10500
H2406       H  0.90674921  0.70291457  0.15136017     0.11600
H2407       H  0.82829755  0.66636784  0.14635535     0.11700
H2408       H  0.85143558  0.67494898  0.19834749     0.13600
H2409       H  0.83369429  0.64979404  0.23181595     0.10100
H2410       H  0.80412416  0.62763645  0.25388988     0.12200
H2411       H  0.77303488  0.63747020  0.19183974     0.08800
H2412       H  0.80261175  0.65982654  0.17002554     0.11600
C2413       C  0.99179580  0.72030761  0.07331745    -0.03000
C2414       C  0.00461677  0.72271268  0.05286191    -0.05600
C2415       C  0.01412862  0.71263815  0.05338952    -0.20700
C2416       C  0.01127896  0.70005724  0.07448122     0.25000
C2417       C  0.99850534  0.69763123  0.09504115    -0.18300
C2418       C  0.98888966  0.70766049  0.09445617    -0.08200
C2419       C  0.02132585  0.68924709  0.07374076    -0.18500
C2420       C  0.02572659  0.68279041  0.09596447    -0.23300
C2421       C  0.03636730  0.67257555  0.09531232     0.27100
C2422       C  0.04717589  0.67358832  0.11785075    -0.20100
C2423       C  0.05713521  0.66397294  0.11838486    -0.09700
C2424       C  0.05635037  0.65282958  0.09647771    -0.10300
C2425       C  0.04537730  0.65165500  0.07393693    -0.03200
C2426       C  0.03549770  0.66143410  0.07333194    -0.18300
H2427       H  0.00720176  0.73227296  0.03619975     0.10800
H2428       H  0.02379327  0.71470831  0.03723719     0.10800
H2429       H  0.99554164  0.68767423  0.11125757     0.10500
H2430       H  0.97898754  0.70530820  0.11037575     0.11600
H2431       H  0.02621438  0.68754910  0.05429650     0.11700
H2432       H  0.02246737  0.68609254  0.11559668     0.13600
H2433       H  0.04799822  0.68194572  0.13510947     0.10100
H2434       H  0.06534738  0.66517431  0.13617081     0.12200
H2435       H  0.04431569  0.64308236  0.05684041     0.08800
H2436       H  0.02689317  0.65990578  0.05589583     0.11600
C2437       C  0.85269635  0.54414100  0.66790948    -0.03000
C2438       C  0.84016942  0.52492887  0.66249626    -0.05600
C2439       C  0.83990555  0.51748728  0.63695111    -0.20700
C2440       C  0.85224295  0.52911020  0.61663023     0.25000
C2441       C  0.86385210  0.54846702  0.62168576    -0.18300
C2442       C  0.86414424  0.55582902  0.64690747    -0.08200
C2443       C  0.85365752  0.52114141  0.59049925    -0.18500
C2444       C  0.87067502  0.52769084  0.57895604    -0.23300
C2445       C  0.87449486  0.52219399  0.55234016     0.27100
C2446       C  0.89328127  0.52767380  0.54677631    -0.20100
C2447       C  0.89863868  0.52549705  0.52120612    -0.09700
C2448       C  0.88537765  0.51781244  0.50019730    -0.10300
C2449       C  0.86628176  0.51132225  0.50589310    -0.03200
C2450       C  0.86085570  0.51356690  0.53182081    -0.18300
H2451       H  0.83101668  0.51560063  0.67813657     0.10800
H2452       H  0.83061766  0.50256079  0.63338561     0.10800
H2453       H  0.87298050  0.55797220  0.60616277     0.10500
H2454       H  0.87363876  0.57078174  0.64998854     0.11600
H2455       H  0.84102928  0.50962402  0.58151538     0.11700
H2456       H  0.88305158  0.53798609  0.59006403     0.13600
H2457       H  0.90408380  0.53426876  0.56214076     0.10100
H2458       H  0.91342024  0.53038816  0.51773087     0.12200
H2459       H  0.85575446  0.50535103  0.49009445     0.08800
H2460       H  0.84625652  0.50934083  0.53533776     0.11600
C2461       C  0.79328452  0.55449786  0.78403053    -0.03000
C2462       C  0.78955258  0.56897217  0.79011851    -0.05600
C2463       C  0.77157198  0.56483427  0.79775974    -0.20700
C2464       C  0.75677185  0.54612336  0.79998588     0.25000
C2465       C  0.76029335  0.53148444  0.79380177    -0.18300
C2466       C  0.77841152  0.53566394  0.78575823    -0.08200
C2467       C  0.73798381  0.54288990  0.80825877    -0.18500
C2468       C  0.72463128  0.52725279  0.82085053    -0.23300
C2469       C  0.70711423  0.52590698  0.83177429     0.27100
C2470       C  0.69856090  0.51471892  0.85463494    -0.20100
C2471       C  0.68299042  0.51435572  0.86663733    -0.09700
C2472       C  0.67553621  0.52511206  0.85591479    -0.10300
C2473       C  0.68360224  0.53565288  0.83233361    -0.03200
C2474       C  0.69910826  0.53596715  0.82032082    -0.18300
H2475       H  0.80056002  0.58366103  0.78884739     0.10800
H2476       H  0.76927086  0.57638714  0.80223160     0.10800
H2477       H  0.74908700  0.51688615  0.79477099     0.10500
H2478       H  0.78081086  0.52421111  0.78110657     0.11600
H2479       H  0.73583411  0.55480277  0.80597754     0.11700
H2480       H  0.72736634  0.51594980  0.82557045     0.13600
H2481       H  0.70428455  0.50666335  0.86370811     0.10100
H2482       H  0.67703192  0.50592727  0.88463135     0.12200
H2483       H  0.67801305  0.54380233  0.82319704     0.08800
H2484       H  0.70478655  0.54415308  0.80208633     0.11600
C2485       C  0.86104620  0.62979518  0.70379830    -0.03000
C2486       C  0.86865896  0.63495441  0.67777416    -0.05600
C2487       C  0.86527706  0.64710611  0.66191816    -0.20700
C2488       C  0.85410359  0.65423598  0.67160101     0.25000
C2489       C  0.84693959  0.64947199  0.69792997    -0.18300
C2490       C  0.85028470  0.63734326  0.71372101    -0.08200
C2491       C  0.85057907  0.66693387  0.65407959    -0.18500
C2492       C  0.83528351  0.66882177  0.65681984    -0.23300
C2493       C  0.83127087  0.68168994  0.64048991     0.27100
C2494       C  0.81679654  0.68471548  0.64921172    -0.20100
C2495       C  0.81244423  0.69678091  0.63511535    -0.09700
C2496       C  0.82239645  0.70611485  0.61172717    -0.10300
C2497       C  0.83668115  0.70286919  0.60260247    -0.03200
C2498       C  0.84109034  0.69080099  0.61679099    -0.18300
H2499       H  0.87702310  0.62941379  0.66951029     0.10800
H2500       H  0.87116414  0.65071763  0.64185236     0.10800
H2501       H  0.83893191  0.65524133  0.70665727     0.10500
H2502       H  0.84437540  0.63385821  0.73377529     0.11600
H2503       H  0.86078248  0.67456831  0.63838264     0.11700
H2504       H  0.82498069  0.66055614  0.67215051     0.13600
H2505       H  0.80890536  0.67785250  0.66726742     0.10100
H2506       H  0.80133757  0.69889791  0.64272358     0.12200
H2507       H  0.84459675  0.70979673  0.58460440     0.08800
H2508       H  0.85208529  0.68866454  0.60891273     0.11600
C2509       C  0.88451116  0.62233785  0.84300994    -0.03000
C2510       C  0.88590399  0.63978946  0.83763350    -0.05600
C2511       C  0.89312401  0.65398957  0.85692611    -0.20700
C2512       C  0.89858453  0.65088702  0.88226650     0.25000
C2513       C  0.89688544  0.63331793  0.88801797    -0.18300
C2514       C  0.89009738  0.61920001  0.86836523    -0.08200
C2515       C  0.90699394  0.66665767  0.90160031    -0.18500
C2516       C  0.90353327  0.66428354  0.92811797    -0.23300
C2517       C  0.91154865  0.68051036  0.94675933     0.27100
C2518       C  0.90056954  0.68061121  0.96812522    -0.20100
C2519       C  0.90792431  0.69570524  0.98611007    -0.09700
C2520       C  0.92660222  0.71078193  0.98344874    -0.10300
C2521       C  0.93760852  0.71062253  0.96204943    -0.03200
C2522       C  0.93011923  0.69568559  0.94377807    -0.18300
H2523       H  0.88186929  0.64266101  0.81817843     0.10800
H2524       H  0.89443725  0.66746476  0.85205773     0.10800
H2525       H  0.90132217  0.63072237  0.90733485     0.10500
H2526       H  0.88918912  0.60587484  0.87295915     0.11600
H2527       H  0.91524990  0.68085829  0.89345945     0.11700
H2528       H  0.89363434  0.65035405  0.93601954     0.13600
H2529       H  0.88625193  0.66902130  0.97082671     0.10100
H2530       H  0.89914614  0.69528878  0.00256987     0.12200
H2531       H  0.95208259  0.72192770  0.95961291     0.08800
H2532       H  0.93901572  0.69577406  0.92773303     0.11600
C2533       C  0.03620814  0.81215541  0.33235329    -0.03000
C2534       C  0.04269044  0.80507912  0.31199572    -0.05600
C2535       C  0.03633524  0.80350141  0.28562183    -0.20700
C2536       C  0.02321248  0.80887834  0.27846239     0.25000
C2537       C  0.01733618  0.81696123  0.29839667    -0.18300
C2538       C  0.02389686  0.81867723  0.32517437    -0.08200
C2539       C  0.01533409  0.80411831  0.25057625    -0.18500
C2540       C  0.00292143  0.80821176  0.23907196    -0.23300
C2541       C  0.99462265  0.80048301  0.21203261     0.27100
C2542       C  0.99073728  0.81113588  0.19362324    -0.20100
C2543       C  0.98345472  0.80400639  0.16789820    -0.09700
C2544       C  0.97959750  0.78591923  0.16029946    -0.10300
C2545       C  0.98298939  0.77512861  0.17914096    -0.03200
C2546       C  0.99033359  0.78226273  0.20457248    -0.18300
H2547       H  0.05240604  0.80019217  0.31659284     0.10800
H2548       H  0.04128522  0.79737579  0.27085841     0.10800
H2549       H  0.00723902  0.82131008  0.29372184     0.10500
H2550       H  0.01867257  0.82422063  0.34039989     0.11600
H2551       H  0.01990907  0.79613832  0.23866212     0.11700
H2552       H  0.99894791  0.81733992  0.24911869     0.13600
H2553       H  0.99367290  0.82511120  0.19896796     0.10100
H2554       H  0.98084132  0.81263022  0.15400398     0.12200
H2555       H  0.98003052  0.76107606  0.17425025     0.08800
H2556       H  0.99247563  0.77334736  0.21852128     0.11600
C2557       C  0.10075714  0.87358952  0.45419303    -0.03000
C2558       C  0.11904814  0.87779418  0.46157010    -0.05600
C2559       C  0.13269446  0.89587048  0.46954920    -0.20700
C2560       C  0.12855520  0.91038794  0.47083339     0.25000
C2561       C  0.11026995  0.90639397  0.46352506    -0.18300
C2562       C  0.09650009  0.88813165  0.45512452    -0.08200
C2563       C  0.14414209  0.92940983  0.47900078    -0.18500
C2564       C  0.14181595  0.94308844  0.48977794    -0.23300
C2565       C  0.15808938  0.96120649  0.49975640     0.27100
C2566       C  0.15527254  0.97082717  0.52078633    -0.20100
C2567       C  0.17045723  0.98729081  0.53160227    -0.09700
C2568       C  0.18884925  0.99461760  0.52149189    -0.10300
C2569       C  0.19153288  0.98534988  0.49978259    -0.03200
C2570       C  0.17636698  0.96894133  0.48896005    -0.18300
H2571       H  0.12300242  0.86708748  0.46094644     0.10800
H2572       H  0.14662340  0.89849134  0.47487679     0.10800
H2573       H  0.10667596  0.91735104  0.46379095     0.10500
H2574       H  0.08257899  0.88537459  0.44952847     0.11600
H2575       H  0.15831484  0.93164057  0.47785661     0.11700
H2576       H  0.12765411  0.94041826  0.49336935     0.13600
H2577       H  0.14135157  0.96532168  0.52934584     0.10100
H2578       H  0.16783119  0.99405302  0.54827054     0.12200
H2579       H  0.20542866  0.99068018  0.49124064     0.08800
H2580       H  0.17906382  0.96241222  0.47208618     0.11600
C2581       C  0.00058908  0.80617154  0.47785363    -0.03000
C2582       C  0.99167020  0.79361419  0.49942078    -0.05600
C2583       C  0.97563725  0.79202391  0.51147875    -0.20700
C2584       C  0.96799619  0.80297907  0.50258634     0.25000
C2585       C  0.97729696  0.81620306  0.48177426    -0.18300
C2586       C  0.99346646  0.81779020  0.46956049    -0.08200
C2587       C  0.94939460  0.79854120  0.51388853    -0.18500
C2588       C  0.94140927  0.80935030  0.51160846    -0.23300
C2589       C  0.92174969  0.80248858  0.52112888     0.27100
C2590       C  0.91649708  0.81515638  0.53105575    -0.20100
C2591       C  0.89795435  0.80862104  0.54004175    -0.09700
C2592       C  0.88424963  0.78931837  0.53872053    -0.10300
C2593       C  0.88953649  0.77682358  0.52820757    -0.03200
C2594       C  0.90792348  0.78327883  0.51953390    -0.18300
H2595       H  0.99675387  0.78452831  0.50662024     0.10800
H2596       H  0.96884292  0.78173125  0.52743763     0.10800
H2597       H  0.97173135  0.82474900  0.47410015     0.10500
H2598       H  0.99999234  0.82764080  0.45306050     0.11600
H2599       H  0.94170801  0.78528423  0.52482088     0.11700
H2600       H  0.94932667  0.82341888  0.50303504     0.13600
H2601       H  0.92680569  0.83007729  0.53214370     0.10100
H2602       H  0.89431766  0.81864143  0.54777353     0.12200
H2603       H  0.87941365  0.76187568  0.52664656     0.08800
H2604       H  0.91116375  0.77315429  0.51110455     0.11600
C2605       C  0.23292894  0.85506490  0.29109755    -0.03000
C2606       C  0.23442197  0.86236368  0.31706573    -0.05600
C2607       C  0.21817817  0.85747224  0.33210967    -0.20700
C2608       C  0.20009661  0.84508112  0.32167206     0.25000
C2609       C  0.19861732  0.83816879  0.29541762    -0.18300
C2610       C  0.21480832  0.84303975  0.28041854    -0.08200
C2611       C  0.18318298  0.84018801  0.33839141    -0.18500
C2612       C  0.16611173  0.82453503  0.33466478    -0.23300
C2613       C  0.14895844  0.81972123  0.35076458     0.27100
C2614       C  0.13111515  0.80675404  0.34016680    -0.20100
C2615       C  0.11457251  0.80209423  0.35422605    -0.09700
C2616       C  0.11548906  0.81021015  0.37938539    -0.10300
C2617       C  0.13336705  0.82277396  0.39035314    -0.03200
C2618       C  0.14988740  0.82743521  0.37630361    -0.18300
H2619       H  0.24813546  0.87168851  0.32589501     0.10800
H2620       H  0.21975135  0.86320361  0.35213703     0.10800
H2621       H  0.18502216  0.82920295  0.28610459     0.10500
H2622       H  0.21308548  0.83731647  0.26036679     0.11600
H2623       H  0.18509711  0.84989179  0.35438690     0.11700
H2624       H  0.16433619  0.81481785  0.31875042     0.13600
H2625       H  0.12994739  0.80042596  0.32068418     0.10100
H2626       H  0.10106613  0.79233691  0.34519626     0.12200
H2627       H  0.13463354  0.82915606  0.40981285     0.08800
H2628       H  0.16327173  0.83694640  0.38574305     0.11600
C2629       C  0.01212192  0.72975954  0.41618834    -0.03000
C2630       C  0.99404777  0.72030863  0.42780630    -0.05600
C2631       C  0.98265666  0.70069053  0.42587365    -0.20700
C2632       C  0.98933086  0.69007381  0.41308755     0.25000
C2633       C  0.00736325  0.69947250  0.40135155    -0.18300
C2634       C  0.01856676  0.71916120  0.40262495    -0.08200
C2635       C  0.97707946  0.66927165  0.41165063    -0.18500
C2636       C  0.98380648  0.65758251  0.41586257    -0.23300
C2637       C  0.97161540  0.63673755  0.41518819     0.27100
C2638       C  0.97525277  0.62573893  0.43315891    -0.20100
C2639       C  0.96450157  0.60603809  0.43227006    -0.09700
C2640       C  0.95017667  0.59689049  0.41287455    -0.10300
C2641       C  0.94656096  0.60794238  0.39482002    -0.03200
C2642       C  0.95707803  0.62767156  0.39609317    -0.18300
H2643       H  0.98868332  0.72811251  0.43829684     0.10800
H2644       H  0.96874850  0.69373691  0.43487455     0.10800
H2645       H  0.01269496  0.69161054  0.39094620     0.10500
H2646       H  0.03244780  0.72605812  0.39355765     0.11600
H2647       H  0.96200216  0.66343981  0.40889861     0.11700
H2648       H  0.99853417  0.66346257  0.42148902     0.13600
H2649       H  0.98645149  0.63242570  0.44794543     0.10100
H2650       H  0.96774294  0.59797036  0.44636192     0.12200
H2651       H  0.93568558  0.60134511  0.37958040     0.08800
H2652       H  0.95420674  0.63581877  0.38164500     0.11600
C2653       C  0.15263285  0.69456950  0.83762292    -0.03000
C2654       C  0.16542435  0.68836166  0.84329026    -0.05600
C2655       C  0.16529735  0.68045070  0.86858439    -0.20700
C2656       C  0.15224701  0.67842863  0.88840458     0.25000
C2657       C  0.14014409  0.68544357  0.88305484    -0.18300
C2658       C  0.14030000  0.69332482  0.85810583    -0.08200
C2659       C  0.15101593  0.66900381  0.91467035    -0.18500
C2660       C  0.13402779  0.65755691  0.92596774    -0.23300
C2661       C  0.13045628  0.64933440  0.95358999     0.27100
C2662       C  0.11177433  0.63579642  0.96001552    -0.20100
C2663       C  0.10662621  0.62953397  0.98638795    -0.09700
C2664       C  0.12004026  0.63653438  0.00725002    -0.10300
C2665       C  0.13901911  0.64934616  0.00081595    -0.03200
C2666       C  0.14420187  0.65581466  0.97417590    -0.18300
H2667       H  0.17519659  0.68923254  0.82804962     0.10800
H2668       H  0.17496611  0.67539670  0.87237967     0.10800
H2669       H  0.13041061  0.68477345  0.89821935     0.10500
H2670       H  0.13049218  0.69827185  0.85482290     0.11600
H2671       H  0.16390925  0.67145026  0.92440539     0.11700
H2672       H  0.12154058  0.65429615  0.91420640     0.13600
H2673       H  0.10087839  0.63048884  0.94466275     0.10100
H2674       H  0.09193379  0.61945287  0.99054858     0.12200
H2675       H  0.14964785  0.65499578  0.01651377     0.08800
H2676       H  0.15870918  0.66641266  0.97009017     0.11600
C2677       C  0.33137525  0.85497501  0.64377786    -0.03000
C2678       C  0.32454335  0.83653908  0.63427135    -0.05600
C2679       C  0.30848663  0.82118943  0.64574507    -0.20700
C2680       C  0.29881649  0.82389356  0.66685009     0.25000
C2681       C  0.30610645  0.84224812  0.67703447    -0.18300
C2682       C  0.32207825  0.85755921  0.66555527    -0.08200
C2683       C  0.28115535  0.80742937  0.67768248    -0.18500
C2684       C  0.26731289  0.80937442  0.68880556    -0.23300
C2685       C  0.24878438  0.79359132  0.69835036     0.27100
C2686       C  0.23395629  0.79722383  0.70085076    -0.20100
C2687       C  0.21628324  0.78332560  0.70997772    -0.09700
C2688       C  0.21282875  0.76528832  0.71725916    -0.10300
C2689       C  0.22772244  0.76158528  0.71526700    -0.03200
C2690       C  0.24555953  0.77560062  0.70576455    -0.18300
H2691       H  0.33140043  0.83399204  0.61764191     0.10800
H2692       H  0.30334569  0.80720833  0.63768331     0.10800
H2693       H  0.29959083  0.84489688  0.69397985     0.10500
H2694       H  0.32708735  0.87148412  0.67372699     0.11600
H2695       H  0.27899245  0.79341600  0.67463455     0.11700
H2696       H  0.26902179  0.82334385  0.68941417     0.13600
H2697       H  0.23599855  0.81093201  0.69552550     0.10100
H2698       H  0.20527318  0.78683195  0.71141956     0.12200
H2699       H  0.22553550  0.74786168  0.72076920     0.08800
H2700       H  0.25677385  0.77239360  0.70463952     0.11600
C2701       C  0.06952028  0.67527036  0.75321160    -0.03000
C2702       C  0.06000688  0.68196362  0.76894805    -0.05600
C2703       C  0.04027624  0.67254125  0.76920022    -0.20700
C2704       C  0.02960609  0.65597099  0.75431417     0.25000
C2705       C  0.03906783  0.64894805  0.73911345    -0.18300
C2706       C  0.05883605  0.65859780  0.73840890    -0.08200
C2707       C  0.00874081  0.64712194  0.75360594    -0.18500
C2708       C  0.99685561  0.62844360  0.75092649    -0.23300
C2709       C  0.97605976  0.62008686  0.75060319     0.27100
C2710       C  0.96457296  0.60303482  0.76419214    -0.20100
C2711       C  0.94499082  0.59530763  0.76507170    -0.09700
C2712       C  0.93647422  0.60418305  0.75161469    -0.10300
C2713       C  0.94791316  0.62082971  0.73701622    -0.03200
C2714       C  0.96754669  0.62882139  0.73674217    -0.18300
H2715       H  0.06781906  0.69485736  0.78038312     0.10800
H2716       H  0.03330881  0.67829127  0.78091438     0.10800
H2717       H  0.03124207  0.63640954  0.72698566     0.10500
H2718       H  0.06576579  0.65313364  0.72603805     0.11600
H2719       H  0.00292807  0.65625121  0.75660818     0.11700
H2720       H  0.00240237  0.61894945  0.75077780     0.13600
H2721       H  0.97081820  0.59596484  0.77475965     0.10100
H2722       H  0.93648701  0.58237556  0.77629003     0.12200
H2723       H  0.94172177  0.62794697  0.72644501     0.08800
H2724       H  0.97606498  0.64177740  0.72559223     0.11600
C2725       C  0.07803420  0.78084770  0.51253769    -0.03000
C2726       C  0.09637930  0.78369693  0.51083304    -0.05600
C2727       C  0.10292728  0.77585894  0.52997521    -0.20700
C2728       C  0.09150793  0.76540992  0.55163730     0.25000
C2729       C  0.07323358  0.76272874  0.55371139    -0.18300
C2730       C  0.06649429  0.77025277  0.53417781    -0.08200
C2731       C  0.09893737  0.75716519  0.57136481    -0.18500
C2732       C  0.09556617  0.75660402  0.59785238    -0.23300
C2733       C  0.10449944  0.75017741  0.61797863     0.27100
C2734       C  0.11013145  0.75952407  0.64269753    -0.20100
C2735       C  0.11830692  0.75374962  0.66240771    -0.09700
C2736       C  0.12052485  0.73810827  0.65815504    -0.10300
C2737       C  0.11473944  0.72857647  0.63345874    -0.03200
C2738       C  0.10698507  0.73470665  0.61336563    -0.18300
H2739       H  0.10556975  0.79162097  0.49427980     0.10800
H2740       H  0.11702173  0.77805760  0.52794901     0.10800
H2741       H  0.06401132  0.75444845  0.57002887     0.10500
H2742       H  0.05226482  0.76771652  0.53592874     0.11600
H2743       H  0.10879384  0.75304614  0.56422494     0.11700
H2744       H  0.08737070  0.76264189  0.60525590     0.13600
H2745       H  0.10828456  0.77141629  0.64671561     0.10100
H2746       H  0.12242963  0.76124541  0.68134886     0.12200
H2747       H  0.11621640  0.71643578  0.62972128     0.08800
H2748       H  0.10248505  0.72706868  0.59457030     0.11600
C2749       C  0.14691339  0.77448935  0.79529953    -0.03000
C2750       C  0.14061971  0.77300187  0.82192461    -0.05600
C2751       C  0.14446737  0.78916601  0.83629271    -0.20700
C2752       C  0.15476283  0.80715063  0.82446205     0.25000
C2753       C  0.16049312  0.80855386  0.79751219    -0.18300
C2754       C  0.15669275  0.79243931  0.78319876    -0.08200
C2755       C  0.15896436  0.82400737  0.84067849    -0.18500
C2756       C  0.17338893  0.84155004  0.83526661    -0.23300
C2757       C  0.17791464  0.85854304  0.85137048     0.27100
C2758       C  0.18930037  0.87644217  0.83974134    -0.20100
C2759       C  0.19414135  0.89285004  0.85414013    -0.09700
C2760       C  0.18775590  0.89172603  0.88061607    -0.10300
C2761       C  0.17654052  0.87382144  0.89239043    -0.03200
C2762       C  0.17173923  0.85742767  0.87802513    -0.18300
H2763       H  0.13299614  0.75939005  0.83182316     0.10800
H2764       H  0.13967316  0.78764402  0.85690154     0.10800
H2765       H  0.16775529  0.82199620  0.78719332     0.10500
H2766       H  0.16152225  0.79408819  0.76260043     0.11600
H2767       H  0.14997834  0.82163147  0.85789323     0.11700
H2768       H  0.18240927  0.84379723  0.81813586     0.13600
H2769       H  0.19438576  0.87773961  0.81933763     0.10100
H2770       H  0.20280626  0.90640747  0.84446148     0.12200
H2771       H  0.17154374  0.87244526  0.91285008     0.08800
H2772       H  0.16348936  0.84401602  0.88816714     0.11600
C2773       C  0.21502781  0.44976676  0.21311406    -0.03000
C2774       C  0.21922945  0.43541878  0.20879715    -0.05600
C2775       C  0.23734400  0.43970464  0.20179786    -0.20700
C2776       C  0.25185441  0.45844953  0.19847255     0.25000
C2777       C  0.24791516  0.47300805  0.20317573    -0.18300
C2778       C  0.22962191  0.46867182  0.21064621    -0.08200
C2779       C  0.27071670  0.46169847  0.19054724    -0.18500
C2780       C  0.28428522  0.47728859  0.17811182    -0.23300
C2781       C  0.30185538  0.47842416  0.16776492     0.27100
C2782       C  0.31093475  0.48969868  0.14515347    -0.20100
C2783       C  0.32649494  0.48974119  0.13362280    -0.09700
C2784       C  0.33336311  0.47854801  0.14458630    -0.10300
C2785       C  0.32480140  0.46796689  0.16796212    -0.03200
C2786       C  0.30936747  0.46800309  0.17951350    -0.18300
H2787       H  0.20843827  0.42070021  0.21091492     0.10800
H2788       H  0.23995172  0.42820382  0.19859384     0.10800
H2789       H  0.25888477  0.48765418  0.20137357     0.10500
H2790       H  0.22681979  0.48001405  0.21401379     0.11600
H2791       H  0.27277782  0.44974565  0.19306912     0.11700
H2792       H  0.28176239  0.48870063  0.17317011     0.13600
H2793       H  0.30561831  0.49805341  0.13588560     0.10100
H2794       H  0.33287160  0.49821682  0.11579419     0.12200
H2795       H  0.32993557  0.45948505  0.17731403     0.08800
H2796       H  0.30336087  0.45978150  0.19762653     0.11600
C2797       C  0.12816125  0.58078300  0.13427205    -0.03000
C2798       C  0.12267907  0.57261524  0.15997515    -0.05600
C2799       C  0.12986642  0.56185874  0.17086999    -0.20700
C2800       C  0.14227452  0.55846932  0.15605562     0.25000
C2801       C  0.14815572  0.56690195  0.13046983    -0.18300
C2802       C  0.14131486  0.57820093  0.11978395    -0.08200
C2803       C  0.14816904  0.54557958  0.16782804    -0.18500
C2804       C  0.14897351  0.53228409  0.15324281    -0.23300
C2805       C  0.15003768  0.51637229  0.16587582     0.27100
C2806       C  0.14016055  0.49855511  0.15380534    -0.20100
C2807       C  0.13963386  0.48289105  0.16588248    -0.09700
C2808       C  0.14934724  0.48471653  0.19010146    -0.10300
C2809       C  0.15982856  0.50271864  0.20176007    -0.03200
C2810       C  0.16008153  0.51837830  0.18986672    -0.18300
H2811       H  0.11265997  0.57446812  0.17168384     0.10800
H2812       H  0.12517675  0.55558939  0.19060919     0.10800
H2813       H  0.15794660  0.56471219  0.11876417     0.10500
H2814       H  0.14574923  0.58432924  0.09993069     0.11600
H2815       H  0.14896127  0.54510350  0.18961666     0.11700
H2816       H  0.14612834  0.53154309  0.13177301     0.13600
H2817       H  0.13235425  0.49663141  0.13531557     0.10100
H2818       H  0.13152760  0.46929081  0.15623403     0.12200
H2819       H  0.16752127  0.50463499  0.22035173     0.08800
H2820       H  0.16813308  0.53200825  0.19942944     0.11600
C2821       C  0.18799788  0.29837289  0.38487914    -0.03000
C2822       C  0.17735357  0.30480227  0.39837630    -0.05600
C2823       C  0.17206048  0.31650698  0.38537578    -0.20700
C2824       C  0.17700084  0.32185058  0.35847093     0.25000
C2825       C  0.18806105  0.31583054  0.34505454    -0.18300
C2826       C  0.19351474  0.30421138  0.35817285    -0.08200
C2827       C  0.17056919  0.33393091  0.34545252    -0.18500
C2828       C  0.16794942  0.33427107  0.31873876    -0.23300
C2829       C  0.16140656  0.34630112  0.30582773     0.27100
C2830       C  0.16618467  0.35164630  0.27888387    -0.20100
C2831       C  0.16092904  0.36346914  0.26613877    -0.09700
C2832       C  0.15053274  0.37005207  0.27997809    -0.10300
C2833       C  0.14507667  0.36410880  0.30665470    -0.03200
C2834       C  0.15043952  0.35233657  0.31947454    -0.18300
H2835       H  0.17296794  0.30067952  0.41901815     0.10800
H2836       H  0.16374320  0.32111688  0.39625024     0.10800
H2837       H  0.19268776  0.32016986  0.32457749     0.10500
H2838       H  0.20178189  0.29956030  0.34727624     0.11600
H2839       H  0.16744543  0.34245458  0.35861988     0.11700
H2840       H  0.17110386  0.32577305  0.30556097     0.13600
H2841       H  0.17440605  0.34700845  0.26781900     0.10100
H2842       H  0.16528827  0.36768696  0.24551348     0.12200
H2843       H  0.13698634  0.36885130  0.31781149     0.08800
H2844       H  0.14587057  0.34795820  0.33995543     0.11600
C2845       C  0.09397233  0.21323592  0.96414622    -0.03000
C2846       C  0.10227859  0.21937892  0.98964964    -0.05600
C2847       C  0.11335644  0.21271798  0.00106833    -0.20700
C2848       C  0.11686489  0.20007799  0.98709095     0.25000
C2849       C  0.10825705  0.19351592  0.96174745    -0.18300
C2850       C  0.09673502  0.19991641  0.95048453    -0.08200
C2851       C  0.12973385  0.19439859  0.99975111    -0.18500
C2852       C  0.14145600  0.19074483  0.98563100    -0.23300
C2853       C  0.15682509  0.18880914  0.99858050     0.27100
C2854       C  0.17376378  0.19514320  0.98451943    -0.20100
C2855       C  0.18911253  0.19501587  0.99666322    -0.09700
C2856       C  0.18777111  0.18812158  0.02301727    -0.10300
C2857       C  0.17050090  0.18092091  0.03669234    -0.03200
C2858       C  0.15521909  0.18135933  0.02468381    -0.18300
H2859       H  0.10024900  0.22946560  0.00084892     0.10800
H2860       H  0.11965592  0.21789014  0.02065883     0.10800
H2861       H  0.11036102  0.18344287  0.95068790     0.10500
H2862       H  0.09044886  0.19488722  0.93086081     0.11600
H2863       H  0.13122540  0.19554748  0.02148812     0.11700
H2864       H  0.14130610  0.19145656  0.96381298     0.13600
H2865       H  0.17534753  0.20079721  0.96433829     0.10100
H2866       H  0.20212387  0.20047339  0.98544475     0.12200
H2867       H  0.16896175  0.17541575  0.05695547     0.08800
H2868       H  0.14221006  0.17590480  0.03587815     0.11600
C2869       C  0.88390703  0.08930850  0.04421893    -0.03000
C2870       C  0.89869823  0.09123880  0.06077419    -0.05600
C2871       C  0.91750378  0.10404163  0.05386114    -0.20700
C2872       C  0.92174988  0.11463357  0.02997133     0.25000
C2873       C  0.90689978  0.11220200  0.01311005    -0.18300
C2874       C  0.88822084  0.09974157  0.02021206    -0.08200
C2875       C  0.94149004  0.12933888  0.02386572    -0.18500
C2876       C  0.94769558  0.13393861  0.99840131    -0.23300
C2877       C  0.96600953  0.15067079  0.99096965     0.27100
C2878       C  0.97414310  0.15070948  0.96624224    -0.20100
C2879       C  0.99025168  0.16694337  0.95704468    -0.09700
C2880       C  0.99835150  0.18365101  0.97215494    -0.10300
C2881       C  0.99033061  0.18357174  0.99709480    -0.03200
C2882       C  0.97435960  0.16721581  0.00649452    -0.18300
H2883       H  0.89570180  0.08346182  0.07952320     0.10800
H2884       H  0.92872634  0.10585419  0.06729252     0.10800
H2885       H  0.90962371  0.12051842  0.99494661     0.10500
H2886       H  0.87708311  0.09853673  0.00710937     0.11600
H2887       H  0.95089047  0.13671189  0.04058605     0.11700
H2888       H  0.93877769  0.12521966  0.98203277     0.13600
H2889       H  0.96781836  0.13820811  0.95378162     0.10100
H2890       H  0.99602369  0.16655948  0.93768726     0.12200
H2891       H  0.99625463  0.19622497  0.00918794     0.08800
H2892       H  0.96814597  0.16782096  0.02531993     0.11600
C2893       C  0.07658261  0.28436729  0.02094779    -0.03000
C2894       C  0.09495215  0.29107017  0.03084208    -0.05600
C2895       C  0.10203707  0.30400173  0.05195160    -0.20700
C2896       C  0.09111603  0.31086000  0.06330783     0.25000
C2897       C  0.07253865  0.30382668  0.05389726    -0.18300
C2898       C  0.06533262  0.29064577  0.03297702    -0.08200
C2899       C  0.09963930  0.32519456  0.08497365    -0.18500
C2900       C  0.09463023  0.33817967  0.08979194    -0.23300
C2901       C  0.10385942  0.35326632  0.11044632     0.27100
C2902       C  0.09434105  0.36237636  0.11934421    -0.20100
C2903       C  0.10242349  0.37660384  0.13873596    -0.09700
C2904       C  0.12027377  0.38207803  0.14967051    -0.10300
C2905       C  0.13001117  0.37327912  0.14034570    -0.03200
C2906       C  0.12198892  0.35914534  0.12084959    -0.18300
H2907       H  0.10392636  0.28639698  0.02213721     0.10800
H2908       H  0.11629891  0.30901772  0.05901641     0.10800
H2909       H  0.06349019  0.30834204  0.06271180     0.10500
H2910       H  0.05111535  0.28570241  0.02580238     0.11600
H2911       H  0.11097637  0.32538613  0.09648825     0.11700
H2912       H  0.08329313  0.33789254  0.07810360     0.13600
H2913       H  0.08045434  0.35828180  0.11152809     0.10100
H2914       H  0.09448558  0.38299617  0.14562420     0.12200
H2915       H  0.14385394  0.37726593  0.14821873     0.08800
H2916       H  0.13019614  0.35309350  0.11392063     0.11600
C2917       C  0.11671861  0.29759436  0.88724681    -0.03000
C2918       C  0.11624339  0.30778436  0.86475273    -0.05600
C2919       C  0.13289818  0.32046403  0.85143121    -0.20700
C2920       C  0.15038933  0.32313552  0.86005907     0.25000
C2921       C  0.15090862  0.31315088  0.88284867    -0.18300
C2922       C  0.13425312  0.30050639  0.89622130    -0.08200
C2923       C  0.16762093  0.33661390  0.84486393    -0.18500
C2924       C  0.18408440  0.33671681  0.84585646    -0.23300
C2925       C  0.20088912  0.34974689  0.82954173     0.27100
C2926       C  0.21884144  0.35359969  0.83801716    -0.20100
C2927       C  0.23496273  0.36561407  0.82301387    -0.09700
C2928       C  0.23340466  0.37383397  0.79899893    -0.10300
C2929       C  0.21538916  0.36969571  0.79029309    -0.03200
C2930       C  0.19933786  0.35778787  0.80529959    -0.18300
H2931       H  0.10298870  0.30593178  0.85734717     0.10800
H2932       H  0.13207964  0.32806046  0.83407890     0.10800
H2933       H  0.16407722  0.31515437  0.89075045     0.10500
H2934       H  0.13512936  0.29294846  0.91356661     0.11600
H2935       H  0.16639845  0.34658874  0.83187725     0.11700
H2936       H  0.18552389  0.32695639  0.85900409     0.13600
H2937       H  0.22040836  0.34739154  0.85642048     0.10100
H2938       H  0.24861328  0.36839770  0.83015962     0.12200
H2939       H  0.21364013  0.37566666  0.77178075     0.08800
H2940       H  0.18576579  0.35466672  0.79742064     0.11600
C2941       C  0.13357968  0.48484084  0.50347409    -0.03000
C2942       C  0.15113424  0.49978015  0.49473395    -0.05600
C2943       C  0.15806528  0.49931498  0.46907072    -0.20700
C2944       C  0.14775315  0.48376442  0.45201809     0.25000
C2945       C  0.13012734  0.46905654  0.46072017    -0.18300
C2946       C  0.12320438  0.46956212  0.48599382    -0.08200
C2947       C  0.15495571  0.48299808  0.42485577    -0.18500
C2948       C  0.15146075  0.46640411  0.41449754    -0.23300
C2949       C  0.15493118  0.46291936  0.38628167     0.27100
C2950       C  0.15087822  0.44462031  0.38008430    -0.20100
C2951       C  0.15107957  0.43934622  0.35358097    -0.09700
C2952       C  0.15554992  0.45227517  0.33237784    -0.10300
C2953       C  0.16068729  0.47095619  0.33844381    -0.03200
C2954       C  0.16024096  0.47623756  0.36520888    -0.18300
H2955       H  0.15941057  0.51181884  0.50759839     0.10800
H2956       H  0.17157445  0.51095685  0.46267428     0.10800
H2957       H  0.12144117  0.45717406  0.44780528     0.10500
H2958       H  0.10957776  0.45782600  0.49178981     0.11600
H2959       H  0.16288684  0.49601456  0.41354716     0.11700
H2960       H  0.14483340  0.45407238  0.42755642     0.13600
H2961       H  0.14680925  0.43405047  0.39576851     0.10100
H2962       H  0.14725901  0.42490105  0.34958739     0.12200
H2963       H  0.16411636  0.48117383  0.32242820     0.08800
H2964       H  0.16333913  0.49044642  0.36904984     0.11600
C2965       C  0.13195317  0.54986749  0.62371410    -0.03000
C2966       C  0.14503485  0.56546944  0.60844717    -0.05600
C2967       C  0.15025257  0.58389122  0.61626569    -0.20700
C2968       C  0.14295955  0.58708790  0.63989119     0.25000
C2969       C  0.13043681  0.57146775  0.65563394    -0.18300
C2970       C  0.12493172  0.55312963  0.64755007    -0.08200
C2971       C  0.14719678  0.60651340  0.64666587    -0.18500
C2972       C  0.14807079  0.61229406  0.67225791    -0.23300
C2973       C  0.14992500  0.63065683  0.67993544     0.27100
C2974       C  0.15802198  0.63856431  0.70493476    -0.20100
C2975       C  0.15806013  0.65457821  0.71439802    -0.09700
C2976       C  0.14952997  0.66281549  0.69938891    -0.10300
C2977       C  0.14170789  0.65513242  0.67409689    -0.03200
C2978       C  0.14203785  0.63931607  0.66435063    -0.18300
H2979       H  0.15057387  0.56338863  0.58990130     0.10800
H2980       H  0.15980988  0.59566133  0.60366081     0.10800
H2981       H  0.12418723  0.57330777  0.67361157     0.10500
H2982       H  0.11483389  0.54140495  0.65976206     0.11600
H2983       H  0.14963516  0.61622065  0.63018533     0.11700
H2984       H  0.14743993  0.60313745  0.68857628     0.13600
H2985       H  0.16404205  0.63209771  0.71745093     0.10100
H2986       H  0.16412327  0.66006784  0.73399745     0.12200
H2987       H  0.13506424  0.66117771  0.66202841     0.08800
H2988       H  0.13533661  0.63339046  0.64523453     0.11600
C2989       C  0.24616049  0.44861811  0.71706157    -0.03000
C2990       C  0.22735115  0.43466621  0.71169823    -0.05600
C2991       C  0.21406635  0.43952042  0.70394048    -0.20700
C2992       C  0.21912167  0.45844871  0.70092920     0.25000
C2993       C  0.23789904  0.47259606  0.70648356    -0.18300
C2994       C  0.25130116  0.46769292  0.71462565    -0.08200
C2995       C  0.20402486  0.46236303  0.69255113    -0.18500
C2996       C  0.20693999  0.47828222  0.68029002    -0.23300
C2997       C  0.19099279  0.48021309  0.66958607     0.27100
C2998       C  0.19390653  0.49174817  0.64703107    -0.20100
C2999       C  0.17880878  0.49254397  0.63513336    -0.09700
C3000       C  0.16045351  0.48184379  0.64563468    -0.10300
C3001       C  0.15773902  0.47100965  0.66897990    -0.03200
C3002       C  0.17281320  0.47031158  0.68092722    -0.18300
H3003       H  0.22276300  0.41982754  0.71360847     0.10800
H3004       H  0.19972128  0.42832900  0.70000972     0.10800
H3005       H  0.24220475  0.48736440  0.70492147     0.10500
H3006       H  0.26565164  0.47875891  0.71874947     0.11600
H3007       H  0.18963946  0.45070996  0.69463930     0.11700
H3008       H  0.22123786  0.48939401  0.67575914     0.13600
H3009       H  0.20778681  0.49969790  0.63806323     0.10100
H3010       H  0.18142851  0.50113789  0.61728406     0.12200
H3011       H  0.14387893  0.46288286  0.67794743     0.08800
H3012       H  0.17010079  0.46190824  0.69897957     0.11600
C3013       C  0.05156122  0.48661628  0.54339565    -0.03000
C3014       C  0.04442883  0.47763068  0.51858097    -0.05600
C3015       C  0.03169577  0.48074645  0.50389362    -0.20700
C3016       C  0.02589374  0.49300930  0.51349893     0.25000
C3017       C  0.03294331  0.50194221  0.53842067    -0.18300
C3018       C  0.04567800  0.49882083  0.55312533    -0.08200
C3019       C  0.01191713  0.49542581  0.49745209    -0.18500
C3020       C  0.00966249  0.51051430  0.49946012    -0.23300
C3021       C  0.99546262  0.51285670  0.48379219     0.27100
C3022       C  0.99074221  0.52612395  0.49264589    -0.20100
C3023       C  0.97736570  0.52874306  0.47881136    -0.09700
C3024       C  0.96846233  0.51821227  0.45562707    -0.10300
C3025       C  0.97342707  0.50517653  0.44644916    -0.03200
C3026       C  0.98679753  0.50256175  0.46026557    -0.18300
H3027       H  0.04864476  0.46813476  0.51048582     0.10800
H3028       H  0.02638798  0.47357425  0.48487732     0.10800
H3029       H  0.02838793  0.51100729  0.54702487     0.10500
H3030       H  0.05077264  0.50584927  0.57227109     0.11600
H3031       H  0.00334630  0.48427208  0.48340014     0.11700
H3032       H  0.01839308  0.52166593  0.51345652     0.13600
H3033       H  0.99729244  0.53437488  0.51053682     0.10100
H3034       H  0.97393519  0.53895572  0.48638729     0.12200
H3035       H  0.96696128  0.49693512  0.42853209     0.08800
H3036       H  0.99038002  0.49264352  0.45208642     0.11600
C3037       C  0.85685160  0.51777213  0.81241952    -0.03000
C3038       C  0.84578559  0.49937045  0.80228602    -0.05600
C3039       C  0.84649954  0.48422462  0.81423035    -0.20700
C3040       C  0.85836803  0.48715880  0.83639023     0.25000
C3041       C  0.86846787  0.50533794  0.84756209    -0.18300
C3042       C  0.86779016  0.52043588  0.83565129    -0.08200
C3043       C  0.86076241  0.47136049  0.84654841    -0.18500
C3044       C  0.87740453  0.47448042  0.85651155    -0.23300
C3045       C  0.88191027  0.45951684  0.86325116     0.27100
C3046       C  0.90087481  0.46436868  0.86206720    -0.20100
C3047       C  0.90622270  0.45115953  0.86806061    -0.09700
C3048       C  0.89279314  0.43264906  0.87588912    -0.10300
C3049       C  0.87374430  0.42776104  0.87767454    -0.03200
C3050       C  0.86830900  0.44105594  0.87123646    -0.18300
H3051       H  0.83709008  0.49677130  0.78456259     0.10800
H3052       H  0.83838232  0.47032989  0.80541849     0.10800
H3053       H  0.87716988  0.50802825  0.86528806     0.10500
H3054       H  0.87619664  0.53432122  0.84437835     0.11600
H3055       H  0.84943625  0.45699524  0.84303671     0.11700
H3056       H  0.88913520  0.48890596  0.85739234     0.13600
H3057       H  0.91167485  0.47847834  0.85617345     0.10100
H3058       H  0.92105114  0.45558765  0.86670265     0.12200
H3059       H  0.86307578  0.41367765  0.88381300     0.08800
H3060       H  0.85359197  0.43695542  0.87289365     0.11600
C3061       C  0.86020133  0.33186399  0.85077899    -0.03000
C3062       C  0.84212679  0.32445787  0.86203222    -0.05600
C3063       C  0.82646146  0.30871121  0.85059155    -0.20700
C3064       C  0.82844371  0.29997435  0.82765413     0.25000
C3065       C  0.84642114  0.30792691  0.81572494    -0.18300
C3066       C  0.86208131  0.32352729  0.82728720    -0.08200
C3067       C  0.81166200  0.28235910  0.81729595    -0.18500
C3068       C  0.81328741  0.26945843  0.80280973    -0.23300
C3069       C  0.79734552  0.25038108  0.79570272     0.27100
C3070       C  0.80168672  0.23620366  0.79141211    -0.20100
C3071       C  0.78758614  0.21788148  0.78539420    -0.09700
C3072       C  0.76862067  0.21312095  0.78296482    -0.10300
C3073       C  0.76414261  0.22736898  0.78637597    -0.03200
C3074       C  0.77840366  0.24588302  0.79291820    -0.18300
H3075       H  0.84013875  0.33057081  0.88004651     0.10800
H3076       H  0.81281052  0.30304905  0.86011011     0.10800
H3077       H  0.84856244  0.30223415  0.79743040     0.10500
H3078       H  0.87571483  0.32906303  0.81776840     0.11600
H3079       H  0.79778288  0.27912731  0.82398429     0.11700
H3080       H  0.82728639  0.27205687  0.79818297     0.13600
H3081       H  0.81610471  0.23922474  0.79320264     0.10100
H3082       H  0.79162459  0.20735224  0.78258760     0.12200
H3083       H  0.74966402  0.22412034  0.78455000     0.08800
H3084       H  0.77461288  0.25658800  0.79556314     0.11600
C3085       C  0.95535087  0.34992891  0.90624573    -0.03000
C3086       C  0.97147059  0.35699243  0.92274569    -0.05600
C3087       C  0.98184939  0.34779426  0.92436558    -0.20700
C3088       C  0.97613450  0.33107112  0.91009948     0.25000
C3089       C  0.95993054  0.32386867  0.89372564    -0.18300
C3090       C  0.94973608  0.33328125  0.89167987    -0.08200
C3091       C  0.98784809  0.32200268  0.91185602    -0.18500
C3092       C  0.98061735  0.30320931  0.91039281    -0.23300
C3093       C  0.99243685  0.29432003  0.91339869     0.27100
C3094       C  0.98484128  0.27665694  0.92610335    -0.20100
C3095       C  0.99571145  0.26806258  0.92953638    -0.09700
C3096       C  0.01424356  0.27669833  0.91957044    -0.10300
C3097       C  0.02167193  0.29414907  0.90620077    -0.03200
C3098       C  0.01095611  0.30294834  0.90333624    -0.18300
H3099       H  0.97630952  0.36987537  0.93401468     0.10800
H3100       H  0.99436420  0.35372392  0.93693295     0.10800
H3101       H  0.95538542  0.31124047  0.88197870     0.10500
H3102       H  0.93745596  0.32752994  0.87867074     0.11600
H3103       H  0.00278242  0.33104858  0.91623663     0.11700
H3104       H  0.96542980  0.29394968  0.90882112     0.13600
H3105       H  0.97055485  0.26963879  0.93380227     0.10100
H3106       H  0.98954587  0.25455230  0.93973551     0.12200
H3107       H  0.03589433  0.30113791  0.89827962     0.08800
H3108       H  0.01707788  0.31636014  0.89289484     0.11600
C3109       C  0.95974472  0.41023201  0.80661222    -0.03000
C3110       C  0.95784200  0.39770254  0.78607375    -0.05600
C3111       C  0.97053477  0.40390446  0.76454953    -0.20700
C3112       C  0.98562416  0.42257015  0.76355032     0.25000
C3113       C  0.98742556  0.43517779  0.78383368    -0.18300
C3114       C  0.97454073  0.42910501  0.80504252    -0.08200
C3115       C  0.99915627  0.42877385  0.74095797    -0.18500
C3116       C  0.01782883  0.44015263  0.74472421    -0.23300
C3117       C  0.03146936  0.44633435  0.72229070     0.27100
C3118       C  0.04888516  0.44736383  0.72619166    -0.20100
C3119       C  0.06208058  0.45339889  0.70533541    -0.09700
C3120       C  0.05831082  0.45914211  0.68056057    -0.10300
C3121       C  0.04098818  0.45841687  0.67684472    -0.03200
C3122       C  0.02760068  0.45188820  0.69742805    -0.18300
H3123       H  0.94659757  0.38308993  0.78669435     0.10800
H3124       H  0.96883753  0.39401248  0.74897428     0.10800
H3125       H  0.99872917  0.44976630  0.78319187     0.10500
H3126       H  0.97642841  0.43911485  0.82053168     0.11600
H3127       H  0.99379603  0.42301491  0.72111469     0.11700
H3128       H  0.02337140  0.44423815  0.76501023     0.13600
H3129       H  0.05216497  0.44326329  0.74529940     0.10100
H3130       H  0.07534596  0.45387322  0.70870693     0.12200
H3131       H  0.03770097  0.46268263  0.65788076     0.08800
H3132       H  0.01439201  0.45153720  0.69410049     0.11600
C3133       C  0.04364898  0.55450760  0.05577314    -0.03000
C3134       C  0.03964883  0.53709278  0.06685190    -0.05600
C3135       C  0.02849524  0.52033742  0.05285874    -0.20700
C3136       C  0.02128457  0.52056750  0.02732511     0.25000
C3137       C  0.02495217  0.53792515  0.01634354    -0.18300
C3138       C  0.03601890  0.55472924  0.03046728    -0.08200
C3139       C  0.00956762  0.50234771  0.01327612    -0.18500
C3140       C  0.00826004  0.50072719  0.98628611    -0.23300
C3141       C  0.99655589  0.48253190  0.97195965     0.27100
C3142       C  0.99200752  0.48308859  0.94483953    -0.20100
C3143       C  0.98048118  0.46644962  0.93073295    -0.09700
C3144       C  0.97334561  0.44879161  0.94337307    -0.10300
C3145       C  0.97844354  0.44816083  0.97022425    -0.03200
C3146       C  0.98994803  0.46481941  0.98437118    -0.18300
H3147       H  0.04522702  0.53638017  0.08634106     0.10800
H3148       H  0.02571622  0.50714222  0.06186051     0.10800
H3149       H  0.01911589  0.53857760  0.99706909     0.10500
H3150       H  0.03876083  0.56789781  0.02144075     0.11600
H3151       H  0.00221346  0.48991525  0.02589173     0.11700
H3152       H  0.01586601  0.51331867  0.97396098     0.13600
H3153       H  0.99707283  0.49648291  0.93464657     0.10100
H3154       H  0.97692629  0.46745098  0.91000682     0.12200
H3155       H  0.97326108  0.43478468  0.98050664     0.08800
H3156       H  0.99360231  0.46360668  0.00490036     0.11600
C3157       C  0.97742387  0.19656511  0.66492069    -0.03000
C3158       C  0.97423859  0.20678008  0.68465674    -0.05600
C3159       C  0.98185134  0.20897109  0.71038565    -0.20700
C3160       C  0.99294852  0.20108827  0.71735700     0.25000
C3161       C  0.99570740  0.19025189  0.69800603    -0.18300
C3162       C  0.98790963  0.18794445  0.67200557    -0.08200
C3163       C  0.00225047  0.20599025  0.74430316    -0.18500
C3164       C  0.01145456  0.19819932  0.75631637    -0.23300
C3165       C  0.02090316  0.20522979  0.78291713     0.27100
C3166       C  0.02093845  0.19270441  0.80227281    -0.20100
C3167       C  0.02835667  0.19911287  0.82816661    -0.09700
C3168       C  0.03602569  0.21821658  0.83500632    -0.10300
C3169       C  0.03696705  0.23084307  0.81499827    -0.03200
C3170       C  0.02960990  0.22447584  0.78934612    -0.18300
H3171       H  0.96605278  0.21343077  0.68010943     0.10800
H3172       H  0.97938525  0.21731719  0.72478835     0.10800
H3173       H  0.00431755  0.18408469  0.70248877     0.10500
H3174       H  0.99063294  0.18001116  0.65722330     0.11600
H3175       H  0.00126598  0.21686516  0.75520630     0.11700
H3176       H  0.01142384  0.18619358  0.74737959     0.13600
H3177       H  0.01459858  0.17785457  0.79767940     0.10100
H3178       H  0.02757155  0.18904613  0.84301341     0.12200
H3179       H  0.04313348  0.24572224  0.81925272     0.08800
H3180       H  0.03059612  0.23468216  0.77459534     0.11600
C3181       C  0.91396496  0.12732985  0.54524821    -0.03000
C3182       C  0.91209188  0.11240062  0.56140654    -0.05600
C3183       C  0.89934360  0.09363784  0.55417985    -0.20700
C3184       C  0.88868878  0.08949597  0.53034308     0.25000
C3185       C  0.89107616  0.10447237  0.51380367    -0.18300
C3186       C  0.90348604  0.12312888  0.52123866    -0.08200
C3187       C  0.87407542  0.06968001  0.52406696    -0.18500
C3188       C  0.86926297  0.06343048  0.49862679    -0.23300
C3189       C  0.85324835  0.04446587  0.49155367     0.27100
C3190       C  0.85382374  0.03627697  0.46717847    -0.20100
C3191       C  0.83830076  0.01930063  0.45854679    -0.09700
C3192       C  0.82163300  0.01033395  0.47381909    -0.10300
C3193       C  0.82109286  0.01844447  0.49838111    -0.03200
C3194       C  0.83677760  0.03527762  0.50725871    -0.18300
H3195       H  0.91987047  0.11524214  0.58012078     0.10800
H3196       H  0.89762134  0.08233887  0.56737100     0.10800
H3197       H  0.88277579  0.10185880  0.49565626     0.10500
H3198       H  0.90461579  0.13434093  0.50837865     0.11600
H3199       H  0.86718018  0.06005893  0.54078340     0.11700
H3200       H  0.87749651  0.07256558  0.48209148     0.13600
H3201       H  0.86626224  0.04318358  0.45457982     0.10100
H3202       H  0.83914420  0.01352567  0.43943892     0.12200
H3203       H  0.80844576  0.01191317  0.51056744     0.08800
H3204       H  0.83568886  0.04144805  0.52583148     0.11600
C3205       C  0.01027541  0.19557231  0.52590058    -0.03000
C3206       C  0.01932257  0.18833656  0.54191994    -0.05600
C3207       C  0.03592664  0.18929271  0.53323290    -0.20700
C3208       C  0.04374939  0.19713745  0.50810496     0.25000
C3209       C  0.03441745  0.20383827  0.49156459    -0.18300
C3210       C  0.01789497  0.20314779  0.50045771    -0.08200
C3211       C  0.06254462  0.19978520  0.50122431    -0.18500
C3212       C  0.06894954  0.20109001  0.47593890    -0.23300
C3213       C  0.08859728  0.20564075  0.47022818     0.27100
C3214       C  0.09250668  0.19874455  0.44682559    -0.20100
C3215       C  0.11113173  0.20393416  0.44030081    -0.09700
C3216       C  0.12621531  0.21653456  0.45673222    -0.10300
C3217       C  0.12224610  0.22326225  0.48025794    -0.03200
C3218       C  0.10369667  0.21783865  0.48699427    -0.18300
H3219       H  0.01392913  0.18248591  0.56165726     0.10800
H3220       H  0.04289331  0.18416777  0.54645071     0.10800
H3221       H  0.04025680  0.21034327  0.47230509     0.10500
H3222       H  0.01127614  0.20884404  0.48762661     0.11600
H3223       H  0.07145792  0.20049848  0.51794415     0.11700
H3224       H  0.05957586  0.19856978  0.45898731     0.13600
H3225       H  0.08113978  0.18947076  0.43345098     0.10100
H3226       H  0.11379648  0.19871456  0.42189312     0.12200
H3227       H  0.13357619  0.23306169  0.49326960     0.08800
H3228       H  0.10131215  0.22383825  0.50479960     0.11600
C3229       C  0.89448590  0.18882077  0.62097337    -0.03000
C3230       C  0.89499207  0.20082817  0.64132836    -0.05600
C3231       C  0.87888426  0.19590508  0.65668292    -0.20700
C3232       C  0.86192703  0.17881131  0.65228667     0.25000
C3233       C  0.86143005  0.16685969  0.63173624    -0.18300
C3234       C  0.87748959  0.17181751  0.61634996    -0.08200
C3235       C  0.84521049  0.17432082  0.66930434    -0.18500
C3236       C  0.82900491  0.15743475  0.66994216    -0.23300
C3237       C  0.81247307  0.15342510  0.68690342     0.27100
C3238       C  0.79441181  0.13896287  0.67915485    -0.20100
C3239       C  0.77846775  0.13491342  0.69431921    -0.09700
C3240       C  0.78026494  0.14511819  0.71781374    -0.10300
C3241       C  0.79842117  0.15922764  0.72598447    -0.03200
C3242       C  0.81432821  0.16331344  0.71078354    -0.18300
H3243       H  0.90783055  0.21404159  0.64540461     0.10800
H3244       H  0.87972443  0.20547546  0.67221433     0.10800
H3245       H  0.84874335  0.15374358  0.62704682     0.10500
H3246       H  0.87658128  0.16220227  0.60084973     0.11600
H3247       H  0.84641028  0.18564546  0.68178400     0.11700
H3248       H  0.82731508  0.14606461  0.65719293     0.13600
H3249       H  0.79258894  0.13097611  0.66101888     0.10100
H3250       H  0.76471773  0.12395705  0.68743434     0.12200
H3251       H  0.80036520  0.16730280  0.74405659     0.08800
H3252       H  0.82802344  0.17408167  0.71803592     0.11600
C3253       C  0.06845214  0.40510152  0.58673102    -0.03000
C3254       C  0.07273101  0.39452862  0.60473508    -0.05600
C3255       C  0.06270835  0.37482041  0.60389006    -0.20700
C3256       C  0.04823994  0.36515484  0.58496857     0.25000
C3257       C  0.04413921  0.37569412  0.56656591    -0.18300
C3258       C  0.05419588  0.39545351  0.56739265    -0.08200
C3259       C  0.03704291  0.34418019  0.58625447    -0.18500
C3260       C  0.02741798  0.33317819  0.56522650    -0.23300
C3261       C  0.01610440  0.31224034  0.56700252     0.27100
C3262       C  0.01364802  0.30163069  0.54379013    -0.20100
C3263       C  0.00284511  0.28193954  0.54450851    -0.09700
C3264       C  0.99392217  0.27236714  0.56840000    -0.10300
C3265       C  0.99614114  0.28299688  0.59159970    -0.03200
C3266       C  0.00715781  0.30272444  0.59094683    -0.18300
H3267       H  0.08367159  0.40147810  0.61980942     0.10800
H3268       H  0.06613915  0.36707261  0.61831482     0.10800
H3269       H  0.03277808  0.36878175  0.55211212     0.10500
H3270       H  0.05043343  0.40315257  0.55337168     0.11600
H3271       H  0.03733467  0.33756349  0.60509044     0.11700
H3272       H  0.02854940  0.33957532  0.54563605     0.13600
H3273       H  0.02022119  0.30860761  0.52504650     0.10100
H3274       H  0.00132055  0.27421939  0.52619719     0.12200
H3275       H  0.98937842  0.27607484  0.61027197     0.08800
H3276       H  0.00829566  0.31047361  0.60905012     0.11600
C3277       C  0.89259092  0.36741408  0.99226349    -0.03000
C3278       C  0.90625364  0.37209155  0.01250318    -0.05600
C3279       C  0.90106198  0.36595380  0.03884721    -0.20700
C3280       C  0.88203486  0.35481897  0.04606351     0.25000
C3281       C  0.86810911  0.35057002  0.02618278    -0.18300
C3282       C  0.87338468  0.35694396  0.99945486    -0.08200
C3283       C  0.87815076  0.34697881  0.07394783    -0.18500
C3284       C  0.86114555  0.33629609  0.08561017    -0.23300
C3285       C  0.85980928  0.32719849  0.11223543     0.27100
C3286       C  0.84703089  0.32587715  0.13202225    -0.20100
C3287       C  0.84669506  0.31810034  0.15750216    -0.09700
C3288       C  0.85901619  0.31134668  0.16342771    -0.10300
C3289       C  0.87122268  0.31209642  0.14312923    -0.03200
C3290       C  0.87154265  0.31978686  0.11796200    -0.18300
H3291       H  0.92117565  0.38036481  0.00794618     0.10800
H3292       H  0.91213957  0.36954849  0.05358466     0.10800
H3293       H  0.85327501  0.34194549  0.03091362     0.10500
H3294       H  0.86252414  0.35315902  0.98432447     0.11600
H3295       H  0.89051225  0.34981060  0.08570377     0.11700
H3296       H  0.84835141  0.33414932  0.07591357     0.13600
H3297       H  0.83767221  0.33127428  0.12799417     0.10100
H3298       H  0.83702109  0.31761332  0.17261301     0.12200
H3299       H  0.88067890  0.30674751  0.14663711     0.08800
H3300       H  0.88105642  0.31990280  0.10288109     0.11600
C3301       C  0.67758426  0.14745470  0.35024315    -0.03000
C3302       C  0.68499730  0.14323210  0.32769245    -0.05600
C3303       C  0.70102813  0.15727083  0.31474878    -0.20700
C3304       C  0.71008112  0.17595923  0.32377847     0.25000
C3305       C  0.70233583  0.18047739  0.34570180    -0.18300
C3306       C  0.68617910  0.16632096  0.35878002    -0.08200
C3307       C  0.72851595  0.18955091  0.31143106    -0.18500
C3308       C  0.73720697  0.20847523  0.31318967    -0.23300
C3309       C  0.75661714  0.22064290  0.30250636     0.27100
C3310       C  0.76208737  0.23834502  0.29106160    -0.20100
C3311       C  0.78039295  0.24970308  0.28077654    -0.09700
C3312       C  0.79359749  0.24362608  0.28219761    -0.10300
C3313       C  0.78809768  0.22604977  0.29416666    -0.03200
C3314       C  0.76993167  0.21477191  0.30424072    -0.18300
H3315       H  0.67871059  0.12891481  0.32037621     0.10800
H3316       H  0.70669071  0.15337815  0.29796542     0.10800
H3317       H  0.70912406  0.19467457  0.35353743     0.10500
H3318       H  0.68084109  0.17002656  0.37612728     0.11600
H3319       H  0.73540779  0.18346864  0.30013852     0.11700
H3320       H  0.73002974  0.21514782  0.32203002     0.13600
H3321       H  0.75213354  0.24326944  0.28980787     0.10100
H3322       H  0.78424235  0.26325578  0.27195332     0.12200
H3323       H  0.79789832  0.22096479  0.29597716     0.08800
H3324       H  0.76643612  0.20152984  0.31380384     0.11600
C3325       C  0.86192979  0.33994802  0.30557924    -0.03000
C3326       C  0.84948299  0.34584760  0.29650438    -0.05600
C3327       C  0.84947355  0.36122339  0.30841404    -0.20700
C3328       C  0.86172455  0.37095624  0.32984183     0.25000
C3329       C  0.87416044  0.36502282  0.33897071    -0.18300
C3330       C  0.87419027  0.34968208  0.32705339    -0.08200
C3331       C  0.86210174  0.38796254  0.34087010    -0.18500
C3332       C  0.86888020  0.39495410  0.36549963    -0.23300
C3333       C  0.87234104  0.41354460  0.37498895     0.27100
C3334       C  0.88738385  0.42364935  0.39288266    -0.20100
C3335       C  0.89253829  0.44192388  0.40050236    -0.09700
C3336       C  0.88241213  0.45032964  0.39105404    -0.10300
C3337       C  0.86660680  0.43991780  0.37444605    -0.03200
C3338       C  0.86166259  0.42165521  0.36625799    -0.18300
H3339       H  0.83988077  0.33873163  0.27995627     0.10800
H3340       H  0.83991082  0.36559921  0.30075224     0.10800
H3341       H  0.88434616  0.37248952  0.35471861     0.10500
H3342       H  0.88408249  0.34565482  0.33442265     0.11600
H3343       H  0.85722250  0.39525706  0.32779461     0.11700
H3344       H  0.87363413  0.38759304  0.37862841     0.13600
H3345       H  0.89574446  0.41770233  0.40005487     0.10100
H3346       H  0.90481519  0.44974656  0.41327202     0.12200
H3347       H  0.85871025  0.44623473  0.36677036     0.08800
H3348       H  0.84969132  0.41405623  0.35294650     0.11600
C3349       C  0.88166264  0.25718816  0.33999010    -0.03000
C3350       C  0.87982061  0.23939271  0.33626059    -0.05600
C3351       C  0.88699649  0.23206858  0.35529412    -0.20700
C3352       C  0.89576966  0.24213198  0.37876176     0.25000
C3353       C  0.89740876  0.25982559  0.38277333    -0.18300
C3354       C  0.89051867  0.26732645  0.36347547    -0.08200
C3355       C  0.90374848  0.23416727  0.39808933    -0.18500
C3356       C  0.90417932  0.23693166  0.42476553    -0.23300
C3357       C  0.91166240  0.22860128  0.44427419     0.27100
C3358       C  0.90358849  0.22361164  0.46993735    -0.20100
C3359       C  0.91065968  0.21637205  0.48923038    -0.09700
C3360       C  0.92633328  0.21446398  0.48352103    -0.10300
C3361       C  0.93453454  0.21954053  0.45785691    -0.03200
C3362       C  0.92714462  0.22638254  0.43827555    -0.18300
H3363       H  0.87328824  0.23132075  0.31822902     0.10800
H3364       H  0.88569070  0.21848301  0.35168107     0.10800
H3365       H  0.90449711  0.26812940  0.40039821     0.10500
H3366       H  0.89229106  0.28113062  0.36680008     0.11600
H3367       H  0.90834241  0.22485312  0.39026976     0.11700
H3368       H  0.89777529  0.24461585  0.43280852     0.13600
H3369       H  0.89176012  0.22533206  0.47507681     0.10100
H3370       H  0.90420601  0.21281125  0.50895987     0.12200
H3371       H  0.94669135  0.21831053  0.45300981     0.08800
H3372       H  0.93391499  0.23048187  0.41880260     0.11600
C3373       C  0.93841931  0.32327716  0.25269798    -0.03000
C3374       C  0.94792113  0.31678956  0.23655900    -0.05600
C3375       C  0.96761377  0.32561637  0.23737321    -0.20700
C3376       C  0.97825173  0.34139193  0.25377325     0.25000
C3377       C  0.96880233  0.34802238  0.26978037    -0.18300
C3378       C  0.94906910  0.33895525  0.26939118    -0.08200
C3379       C  0.99910390  0.35021632  0.25440284    -0.18500
C3380       C  0.01085172  0.36889364  0.25735358    -0.23300
C3381       C  0.03167064  0.37768961  0.25598109     0.27100
C3382       C  0.04230688  0.39519232  0.24307935    -0.20100
C3383       C  0.06187353  0.40349179  0.24053308    -0.09700
C3384       C  0.07127610  0.39470828  0.25157351    -0.10300
C3385       C  0.06069778  0.37750356  0.26539327    -0.03200
C3386       C  0.04104887  0.36898031  0.26737800    -0.18300
H3387       H  0.94010418  0.30459451  0.22377079     0.10800
H3388       H  0.97458377  0.32017298  0.22503207     0.10800
H3389       H  0.97660392  0.35990848  0.28308314     0.10500
H3390       H  0.94213669  0.34418561  0.28220891     0.11600
H3391       H  0.00497032  0.34125550  0.25033858     0.11700
H3392       H  0.00507045  0.37816780  0.25849414     0.13600
H3393       H  0.03539013  0.40222046  0.23434082     0.10100
H3394       H  0.06966396  0.41680469  0.22990191     0.12200
H3395       H  0.06755822  0.37040751  0.27407538     0.08800
H3396       H  0.03321592  0.35564876  0.27793773     0.11600
C3397       C  0.85853443  0.22781257  0.20155558    -0.03000
C3398       C  0.86613068  0.23012743  0.17558686    -0.05600
C3399       C  0.86310463  0.21444336  0.16064174    -0.20700
C3400       C  0.85235301  0.19612016  0.17123165     0.25000
C3401       C  0.84518057  0.19387336  0.19749832    -0.18300
C3402       C  0.84813487  0.20950445  0.21236549    -0.08200
C3403       C  0.84935024  0.17974381  0.15475715    -0.18500
C3404       C  0.83441531  0.16219326  0.15820865    -0.23300
C3405       C  0.83112673  0.14519053  0.14309204     0.27100
C3406       C  0.81780687  0.12739100  0.15333446    -0.20100
C3407       C  0.81408009  0.11087965  0.14021283    -0.09700
C3408       C  0.82349419  0.11171295  0.11629142    -0.10300
C3409       C  0.83670030  0.12952518  0.10577523    -0.03200
C3410       C  0.84047875  0.14609380  0.11897968    -0.18300
H3411       H  0.87428102  0.24404605  0.16670149     0.10800
H3412       H  0.86899707  0.21660946  0.14061736     0.10800
H3413       H  0.83752402  0.18011491  0.20691923     0.10500
H3414       H  0.84236405  0.20723136  0.23247478     0.11600
H3415       H  0.85969209  0.18245208  0.13933213     0.11700
H3416       H  0.82399010  0.15991459  0.17331567     0.13600
H3417       H  0.81030912  0.12622396  0.17176057     0.10100
H3418       H  0.80378766  0.09743677  0.14887432     0.12200
H3419       H  0.84412711  0.13068427  0.08729229     0.08800
H3420       H  0.85051633  0.15945004  0.10995252     0.11600
loop_ 
_geom_bond_atom_site_label_1 
_geom_bond_atom_site_label_2 
_geom_bond_distance 
_geom_bond_site_symmetry_2 
_ccdc_geom_bond_type 
O1           C17   1.274       .  A
O1           Zn7   2.015       .  S
C2           O18   1.273       .  A
C2           O15   1.276       .  A
C2         C3349   1.482       .  S
O3           C16   1.279       .  A
O3          Cd10   2.099       .  S
O4           C22   1.278       .  A
O4          Cd13   2.078       .  S
O5           C19   1.277       .  A
O5           Cd9   2.079       .  S
O6           C17   1.275       .  A
O6           Cd9   2.079       .  S
Zn7          O18   2.009       .  S
Zn7          O20   1.999       .  S
Zn7          O12   1.925       .  S
O8           C19   1.276       .  A
O8          Cd13   2.073       .  S
Cd9          O11   2.060       .  S
Cd9          O12   1.989       .  S
Cd10         O14   2.107       .  S
Cd10         O23   2.082       .  S
Cd10         O12   2.012       .  S
O11          C21   1.277       .  A
O12         Cd13   2.001       .  S
Cd13         O15   2.081       .  S
O14          C21   1.281       .  A
C16          O20   1.275       .  A
C16        C3312   1.486       .  S
C17        C3397   1.485       .  S
C19        C3373   1.482       .  S
C21        C3288   1.489       .  S
C22          O23   1.277       .  A
C22        C3325   1.487       .  S
O24          C40   1.273       .  A
O24         Zn30   2.008       .  S
C25          O41   1.273       .  A
C25          O38   1.276       .  A
C25        C3360   1.479       .  S
O26          C39   1.281       .  A
O26         Cd33   2.108       .  S
O27          C45   1.279       .  A
O27         Cd36   2.088       .  S
O28          C42   1.279       .  A
O28         Cd32   2.086       .  S
O29          C40   1.277       .  A
O29         Cd32   2.091       .  S
Zn30         O41   2.007       .  S
Zn30         O43   1.994       .  S
Zn30         O35   1.912       .  S
O31          C42   1.277       .  A
O31         Cd36   2.071       .  S
Cd32         O34   2.057       .  S
Cd32         O35   1.992       .  S
Cd33         O37   2.111       .  S
Cd33         O46   2.084       .  S
Cd33         O35   2.005       .  S
O34          C44   1.276       .  A
O35         Cd36   1.999       .  S
Cd36         O38   2.086       .  S
O37          C44   1.281       .  A
C39          O43   1.274       .  A
C39        C3181   1.481       .  S
C40        C3229   1.486       .  S
C42        C3264   1.485       .  S
C44        C3157   1.488       .  S
C45          O46   1.279       .  A
C45        C3205   1.488   1_655  S
O47          C63   1.272       .  A
O47         Zn53   2.008       .  S
C48          O64   1.274       .  A
C48          O61   1.276       .  A
C48        C3109   1.482       .  S
O49          C62   1.282       .  A
O49         Cd56   2.121       .  S
O50          C68   1.278       .  A
O50         Cd59   2.076       .  S
O51          C65   1.277       .  A
O51         Cd55   2.081       .  S
O52          C63   1.274       .  A
O52         Cd55   2.073       .  S
Zn53         O64   2.012       .  S
Zn53         O66   1.996       .  S
Zn53         O58   1.934       .  S
O54          C65   1.277       .  A
O54         Cd59   2.088       .  S
Cd55         O57   2.047       .  S
Cd55         O58   1.991       .  S
Cd56         O60   2.122       .  S
Cd56         O69   2.100       .  S
Cd56         O58   2.027       .  S
O57          C67   1.275       .  A
O58         Cd59   2.003       .  S
Cd59         O61   2.078       .  S
O60          C67   1.282       .  A
C62          O66   1.274       .  A
C62        C3048   1.491       .  S
C63        C3144   1.482       .  S
C65        C3085   1.488       .  S
C67        C3277   1.489       .  S
C68          O69   1.280       .  A
C68        C3061   1.489       .  S
O70          C86   1.274       .  A
O70         Zn76   2.018       .  S
C71          O87   1.274       .  A
C71          O84   1.275       .  A
C71        C3120   1.476       .  S
O72          C85   1.281       .  A
O72         Cd79   2.116       .  S
O73          C91   1.277       .  A
O73         Cd82   2.069       .  S
O74          C88   1.276       .  A
O74         Cd78   2.080       .  S
O75          C86   1.275       .  A
O75         Cd78   2.071       .  S
Zn76         O87   2.010       .  S
Zn76         O89   2.010       .  S
Zn76         O81   1.927       .  S
O77          C88   1.276       .  A
O77         Cd82   2.078       .  S
Cd78         O80   2.047       .  S
Cd78         O81   1.988       .  S
Cd79         O83   2.117       .  S
Cd79         O92   2.097       .  S
Cd79         O81   2.017       .  S
O80          C90   1.274       .  A
O81         Cd82   1.996       .  S
Cd82         O84   2.077       .  S
O83          C90   1.282       .  A
C85          O89   1.275       .  A
C85        C2965   1.487       .  S
C86        C3013   1.483       .  S
C88        C3253   1.486       .  S
C90        C2941   1.489       .  S
C91          O92   1.280       .  A
C91        C3000   1.487       .  S
O93         C109   1.274       .  A
O93         Zn99   2.015       .  S
C94         O110   1.273       .  A
C94         O107   1.277       .  A
C94        C2893   1.482   1_556  S
O95         C108   1.280       .  A
O95        Cd102   2.114       .  S
O96         C114   1.278       .  A
O96        Cd105   2.080       .  S
O97         C111   1.277       .  A
O97        Cd101   2.083       .  S
O98         C109   1.275       .  A
O98        Cd101   2.070       .  S
Zn99        O110   2.005       .  S
Zn99        O112   1.998       .  S
Zn99        O104   1.923       .  S
O100        C111   1.277       .  A
O100       Cd105   2.087       .  S
Cd101       O103   2.060       .  S
Cd101       O104   1.988       .  S
Cd102       O106   2.106       .  S
Cd102       O115   2.076       .  S
Cd102       O104   2.013       .  S
O103        C113   1.276       .  A
O104       Cd105   2.001       .  S
Cd105       O107   2.089       .  S
O106        C113   1.281       .  A
C108        O112   1.273       .  A
C108       C2845   1.486       .  S
C109       C2917   1.482       .  S
C111       C3096   1.485       .  S
C113       C3168   1.489       .  S
C114        O115   1.278       .  A
C114       C2880   1.482   1_455  S
O116        C132   1.271       .  A
O116       Zn122   1.997       .  S
C117        O133   1.273       .  A
C117        O130   1.276       .  A
C117       C2904   1.483       .  S
O118        C131   1.281       .  A
O118       Cd125   2.120       .  S
O119        C137   1.278       .  A
O119       Cd128   2.077       .  S
O120        C134   1.277       .  A
O120       Cd124   2.085       .  S
O121        C132   1.274       .  A
O121       Cd124   2.078       .  S
Zn122       O133   2.007       .  S
Zn122       O135   1.982       .  S
Zn122       O127   1.926       .  S
O123        C134   1.276       .  A
O123       Cd128   2.072       .  S
Cd124       O126   2.054       .  S
Cd124       O127   1.998       .  S
Cd125       O129   2.113       .  S
Cd125       O138   2.098       .  S
Cd125       O127   2.023       .  S
O126        C136   1.275       .  A
O127       Cd128   1.994       .  S
Cd128       O130   2.083       .  S
O129        C136   1.281       .  A
C131        O135   1.272       .  A
C131       C2773   1.485       .  S
C132       C2832   1.481       .  S
C134       C3384   1.482       .  S
C136       C2952   1.483       .  S
C137        O138   1.280       .  A
C137       C2808   1.489       .  S
O139        C155   1.273       .  A
O139       Zn145   2.003       .  S
C140        O156   1.272       .  A
C140        O153   1.274       .  A
C140       C2749   1.484       .  S
O141        C154   1.282       .  A
O141       Cd148   2.123       .  S
O142        C160   1.276       .  A
O142       Cd151   2.053       .  S
O143        C157   1.278       .  A
O143       Cd147   2.087       .  S
O144        C155   1.277       .  A
O144       Cd147   2.091       .  S
Zn145       O156   2.006       .  S
Zn145       O158   1.987       .  S
Zn145       O150   1.921       .  S
O146        C157   1.277       .  A
O146       Cd151   2.074       .  S
Cd147       O149   2.088       .  S
Cd147       O150   2.009       .  S
Cd148       O152   2.093       .  S
Cd148       O161   2.120       .  S
Cd148       O150   2.018       .  S
O149        C159   1.279       .  A
O150       Cd151   1.993       .  S
Cd151       O153   2.080       .  S
O152        C159   1.279       .  A
C154        O158   1.273       .  A
C154       C2688   1.490       .  S
C155       C2736   1.480       .  S
C157       C2701   1.483       .  S
C159       C2976   1.489       .  S
C160        O161   1.282       .  A
C160       C2653   1.491       .  S
O162        C178   1.273       .  A
O162       Zn168   2.003       .  S
C163        O179   1.271       .  A
C163        O176   1.275       .  A
C163       C2616   1.488       .  S
O164        C177   1.283       .  A
O164       Cd171   2.132       .  S
O165        C183   1.275       .  A
O165       Cd174   2.044       .  S
O166        C180   1.275       .  A
O166       Cd170   2.074       .  S
O167        C178   1.276       .  A
O167       Cd170   2.083       .  S
Zn168       O179   2.008       .  S
Zn168       O181   1.979       .  S
Zn168       O173   1.922       .  S
O169        C180   1.277       .  A
O169       Cd174   2.087       .  S
Cd170       O172   2.064       .  S
Cd170       O173   1.995       .  S
Cd171       O175   2.118       .  S
Cd171       O184   2.138       .  S
Cd171       O173   2.034       .  S
O172        C182   1.277       .  A
O173       Cd174   1.994       .  S
Cd174       O176   2.087       .  S
O175        C182   1.282       .  A
C177        O181   1.273       .  A
C177       C2557   1.490       .  S
C178       C2725   1.482       .  S
C180       C2629   1.482       .  S
C182       C2581   1.493       .  S
C183        O184   1.285       .  A
C183       C2533   1.490       .  S
O185        C201   1.272       .  A
O185       Zn191   1.997       .  S
C186        O202   1.272       .  A
C186        O199   1.274       .  A
C186       C2485   1.486       .  S
O187        C200   1.281       .  A
O187       Cd194   2.116       .  S
O188        C206   1.275       .  A
O188       Cd197   2.045       .  S
O189        C203   1.276       .  A
O189       Cd193   2.077       .  S
O190        C201   1.276       .  A
O190       Cd193   2.085       .  S
Zn191       O202   2.007       .  S
Zn191       O204   1.986       .  S
Zn191       O196   1.921       .  S
O192        C203   1.277       .  A
O192       Cd197   2.083       .  S
Cd193       O195   2.069       .  S
Cd193       O196   1.999       .  S
Cd194       O198   2.103       .  S
Cd194       O207   2.116       .  S
Cd194       O196   2.022       .  S
O195        C205   1.277       .  A
O196       Cd197   1.995       .  S
Cd197       O199   2.083       .  S
O198        C205   1.280       .  A
C200        O204   1.273       .  A
C200       C2461   1.488       .  S
C201       C2509   1.476       .  S
C203       C2712   1.481       .  S
C205       C3037   1.490       .  S
C206        O207   1.282       .  A
C206       C2437   1.487       .  S
O208        C224   1.272       .  A
O208       Zn214   2.006       .  S
C209        O225   1.272       .  A
C209        O222   1.277       .  A
C209       C2389   1.484       .  S
O210        C223   1.280       .  A
O210       Cd217   2.105       .  S
O211        C229   1.277       .  A
O211       Cd220   2.068       .  S
O212        C226   1.276       .  A
O212       Cd216   2.069       .  S
O213        C224   1.275       .  A
O213       Cd216   2.076       .  S
Zn214       O225   1.995       .  S
Zn214       O227   2.000       .  S
Zn214       O219   1.920       .  S
O215        C226   1.279       .  A
O215       Cd220   2.095       .  S
Cd216       O218   2.068       .  S
Cd216       O219   1.992       .  S
Cd217       O221   2.094       .  S
Cd217       O230   2.106       .  S
Cd217       O219   2.010       .  S
O218        C228   1.277       .  A
O219       Cd220   1.996       .  S
Cd220       O222   2.090       .  S
O221        C228   1.280       .  A
C223        O227   1.274       .  A
C223       C2341   1.483       .  S
C224       C2520   1.481   1_554  S
C226       C2413   1.489       .  S
C228       C2376   1.486   1_655  S
C229        O230   1.281       .  A
C229       C2544   1.491       .  S
O231        C247   1.273       .  A
O231       Zn237   2.006       .  S
C232        O248   1.273       .  A
C232        O245   1.276       .  A
C232       C3133   1.482       .  S
O233        C246   1.281       .  A
O233       Cd240   2.117       .  S
O234        C252   1.276       .  A
O234       Cd243   2.056       .  S
O235        C249   1.274       .  A
O235       Cd239   2.061       .  S
O236        C247   1.273       .  A
O236       Cd239   2.064       .  S
Zn237       O248   2.003       .  S
Zn237       O250   1.995       .  S
Zn237       O242   1.921       .  S
O238        C249   1.279       .  A
O238       Cd243   2.098       .  S
Cd239       O241   2.050       .  S
Cd239       O242   1.985       .  S
Cd240       O244   2.101       .  S
Cd240       O253   2.111       .  S
Cd240       O242   2.021       .  S
O241        C251   1.275       .  A
O242       Cd243   1.996       .  S
Cd243       O245   2.080       .  S
O244        C251   1.280       .  A
C246        O250   1.273       .  A
C246       C2797   1.482       .  S
C247       C2328   1.479       .  S
C249       C2424   1.489       .  S
C251       C2293   1.485       .  S
C252        O253   1.281       .  A
C252       C2664   1.485       .  S
O254        C270   1.273       .  A
O254       Zn260   2.007       .  S
C255        O271   1.272       .  A
C255        O268   1.273       .  A
C255       C3024   1.484       .  S
O256        C269   1.279       .  A
O256       Cd263   2.106       .  S
O257        C275   1.274       .  A
O257       Cd266   2.044       .  S
O258        C272   1.276       .  A
O258       Cd262   2.081       .  S
O259        C270   1.274       .  A
O259       Cd262   2.067       .  S
Zn260       O271   2.011       .  S
Zn260       O273   1.987       .  S
Zn260       O265   1.936       .  S
O261        C272   1.276       .  A
O261       Cd266   2.074       .  S
Cd262       O264   2.068       .  S
Cd262       O265   1.997       .  S
Cd263       O267   2.096       .  S
Cd263       O276   2.115       .  S
Cd263       O265   2.026       .  S
O264        C274   1.276       .  A
O265       Cd266   1.990       .  S
Cd266       O268   2.074       .  S
O267        C274   1.279       .  A
C269        O273   1.272       .  A
C269       C3336   1.473       .  S
C270       C2317   1.479       .  S
C272       C2640   1.485       .  S
C274       C2269   1.486       .  S
C275        O276   1.281       .  A
C275       C2448   1.485       .  S
O277        C293   1.273       .  A
O277       Zn283   2.010       .  S
C278        O294   1.274       .  A
C278        O291   1.275       .  A
C278       C2221   1.481       .  S
O279        C292   1.280       .  A
O279       Cd286   2.110       .  S
O280        C298   1.276       .  A
O280       Cd289   2.067       .  S
O281        C295   1.277       .  A
O281       Cd285   2.086       .  S
O282        C293   1.275       .  A
O282       Cd285   2.082       .  S
Zn283       O294   2.010       .  S
Zn283       O296   1.992       .  S
Zn283       O288   1.928       .  S
O284        C295   1.275       .  A
O284       Cd289   2.068       .  S
Cd285       O287   2.054       .  S
Cd285       O288   1.994       .  S
Cd286       O290   2.120       .  S
Cd286       O299   2.095       .  S
Cd286       O288   2.022       .  S
O287        C297   1.275       .  A
O288       Cd289   1.993       .  S
Cd289       O291   2.075       .  S
O290        C297   1.282       .  A
C292        O296   1.274       .  A
C292       C2280   1.484       .  S
C293       C2400   1.485       .  S
C295       C2245   1.481       .  S
C297       C2184   1.489       .  S
C298        O299   1.279       .  A
C298       C2197   1.486       .  S
O300        C316   1.273       .  A
O300       Zn306   2.022       .  S
C301        O317   1.274       .  A
C301        O314   1.275       .  A
C301       C2232   1.479       .  S
O302        C315   1.282       .  A
O302       Cd309   2.122       .  S
O303        C321   1.277       .  A
O303       Cd312   2.070       .  S
O304        C318   1.276       .  A
O304       Cd308   2.080       .  S
O305        C316   1.274       .  A
O305       Cd308   2.073       .  S
Zn306       O317   2.000       .  S
Zn306       O319   1.989       .  S
Zn306       O311   1.927       .  S
O307        C318   1.276       .  A
O307       Cd312   2.079       .  S
Cd308       O310   2.046       .  S
Cd308       O311   1.987       .  S
Cd309       O313   2.118       .  S
Cd309       O322   2.091       .  S
Cd309       O311   2.020       .  S
O310        C320   1.275       .  A
O311       Cd312   2.001       .  S
Cd312       O314   2.074       .  S
O313        C320   1.282       .  A
C315        O319   1.273       .  A
C315       C2592   1.490       .  S
C316       C2496   1.486       .  S
C318       C2149   1.486       .  S
C320       C2101   1.482       .  S
C321        O322   1.279       .  A
C321       C2125   1.487       .  S
O323        C339   1.270       .  A
O323       Zn329   1.988       .  S
C324        O340   1.272       .  A
C324        O337   1.275       .  A
C324       C2053   1.482   1_556  S
O325        C338   1.278       .  A
O325       Cd332   2.105       .  S
O326        C344   1.278       .  A
O326       Cd335   2.083       .  S
O327        C341   1.279       .  A
O327       Cd331   2.096       .  S
O328        C339   1.277       .  A
O328       Cd331   2.096       .  S
Zn329       O340   2.003       .  S
Zn329       O342   1.989       .  S
Zn329       O334   1.930       .  S
O330        C341   1.277       .  A
O330       Cd335   2.076       .  S
Cd331       O333   2.072       .  S
Cd331       O334   2.008       .  S
Cd332       O336   2.099       .  S
Cd332       O345   2.078       .  S
Cd332       O334   2.016       .  S
O333        C343   1.277       .  A
O334       Cd335   2.004       .  S
Cd335       O337   2.080       .  S
O336        C343   1.280       .  A
C338        O342   1.271       .  A
C338       C2016   1.476       .  S
C339       C2077   1.483       .  S
C341       C2029   1.491       .  S
C343       C2112   1.490       .  S
C344        O345   1.277       .  A
C344       C2352   1.485       .  S
O346        C362   1.272       .  A
O346       Zn352   2.010       .  S
C347        O363   1.274       .  A
C347        O360   1.276       .  A
C347       C2064   1.486       .  S
O348        C361   1.281       .  A
O348       Cd355   2.116       .  S
O349        C367   1.277       .  A
O349       Cd358   2.064       .  S
O350        C364   1.276       .  A
O350       Cd354   2.077       .  S
O351        C362   1.274       .  A
O351       Cd354   2.069       .  S
Zn352       O363   2.017       .  S
Zn352       O365   1.985       .  S
Zn352       O357   1.931       .  S
O353        C364   1.276       .  A
O353       Cd358   2.079       .  S
Cd354       O356   2.053       .  S
Cd354       O357   1.990       .  S
Cd355       O359   2.114       .  S
Cd355       O368   2.098       .  S
Cd355       O357   2.027       .  S
O356        C366   1.275       .  A
O357       Cd358   1.996       .  S
Cd358       O360   2.083       .  S
O359        C366   1.281       .  A
C361        O365   1.273       .  A
C361       C1968   1.487       .  S
C362       C1981   1.482       .  S
C364       C2256   1.483       .  S
C366       C1909   1.490       .  S
C367        O368   1.279       .  A
C367       C1933   1.487       .  S
O369        C385   1.272       .  A
O369       Zn375   2.001       .  S
C370        O386   1.273       .  A
C370        O383   1.275       .  A
C370       C1896   1.482       .  S
O371        C384   1.281       .  A
O371       Cd378   2.109       .  S
O372        C390   1.276       .  A
O372       Cd381   2.062       .  S
O373        C387   1.277       .  A
O373       Cd377   2.091       .  S
O374        C385   1.276       .  A
O374       Cd377   2.089       .  S
Zn375       O386   2.010       .  S
Zn375       O388   1.987       .  S
Zn375       O380   1.923       .  S
O376        C387   1.275       .  A
O376       Cd381   2.067       .  S
Cd377       O379   2.056       .  S
Cd377       O380   1.995       .  S
Cd378       O382   2.110       .  S
Cd378       O391   2.105       .  S
Cd378       O380   2.024       .  S
O379        C389   1.276       .  A
O380       Cd381   1.987       .  S
Cd381       O383   2.072       .  S
O382        C389   1.281       .  A
C384        O388   1.273       .  A
C384       C1813   1.485       .  S
C385       C1872   1.484       .  S
C387       C2160   1.481       .  S
C389       C1920   1.479       .  S
C390        O391   1.279       .  A
C390       C1837   1.489       .  S
O392        C408   1.274       .  A
O392       Zn398   2.012       .  S
C393        O409   1.273       .  A
C393        O406   1.276       .  A
C393       C1885   1.483       .  S
O394        C407   1.279       .  A
O394       Cd401   2.107       .  S
O395        C413   1.279       .  A
O395       Cd404   2.082       .  S
O396        C410   1.279       .  A
O396       Cd400   2.092       .  S
O397        C408   1.277       .  A
O397       Cd400   2.082       .  S
Zn398       O409   2.003       .  S
Zn398       O411   1.996       .  S
Zn398       O403   1.921       .  S
O399        C410   1.277       .  A
O399       Cd404   2.074       .  S
Cd400       O402   2.063       .  S
Cd400       O403   1.992       .  S
Cd401       O405   2.108       .  S
Cd401       O414   2.087       .  S
Cd401       O403   2.013       .  S
O402        C412   1.277       .  A
O403       Cd404   1.995       .  S
Cd404       O406   2.081       .  S
O405        C412   1.281       .  A
C407        O411   1.273       .  A
C407       C1765   1.479       .  S
C408       C1800   1.485       .  S
C410       C2040   1.490       .  S
C412       C2173   1.490       .  S
C413        O414   1.278       .  A
C413       C2472   1.488       .  S
O415        C431   1.272       .  A
O415       Zn421   1.997       .  S
C416        O432   1.271       .  A
C416        O429   1.276       .  A
C416       C1861   1.484       .  S
O417        C430   1.279       .  A
O417       Cd424   2.110       .  S
O418        C436   1.276       .  A
O418       Cd427   2.063       .  S
O419        C433   1.276       .  A
O419       Cd423   2.071       .  S
O420        C431   1.276       .  A
O420       Cd423   2.083       .  S
Zn421       O432   1.996       .  S
Zn421       O434   1.981       .  S
Zn421       O426   1.927       .  S
O422        C433   1.277       .  A
O422       Cd427   2.079       .  S
Cd423       O425   2.081       .  S
Cd423       O426   2.005       .  S
Cd424       O428   2.087       .  S
Cd424       O437   2.105       .  S
Cd424       O426   2.020       .  S
O425        C435   1.278       .  A
O426       Cd427   2.004       .  S
Cd427       O429   2.090       .  S
O428        C435   1.278       .  A
C430        O434   1.271       .  A
C430       C2208   1.481       .  S
C431       C1717   1.480       .  S
C433       C1752   1.485       .  S
C435       C1704   1.489       .  S
C436        O437   1.280       .  A
C436       C1680   1.490       .  S
O438        C454   1.273       .  A
O438       Zn444   2.007       .  S
C439        O455   1.273       .  A
C439        O452   1.275       .  A
C439       C1789   1.484       .  S
O440        C453   1.279       .  A
O440       Cd447   2.103       .  S
O441        C459   1.276       .  A
O441       Cd450   2.059       .  S
O442        C456   1.275       .  A
O442       Cd446   2.069       .  S
O443        C454   1.275       .  A
O443       Cd446   2.075       .  S
Zn444       O455   2.012       .  S
Zn444       O457   1.994       .  S
Zn444       O449   1.929       .  S
O445        C456   1.278       .  A
O445       Cd450   2.088       .  S
Cd446       O448   2.069       .  S
Cd446       O449   1.995       .  S
Cd447       O451   2.093       .  S
Cd447       O460   2.110       .  S
Cd447       O449   2.018       .  S
O448        C458   1.277       .  A
O449       Cd450   1.994       .  S
Cd450       O452   2.078       .  S
O451        C458   1.279       .  A
C453        O457   1.273       .  A
C453       C1944   1.486       .  S
C454       C1728   1.482       .  S
C456       C1656   1.487       .  S
C458       C2784   1.487       .  S
C459        O460   1.281       .  A
C459       C1621   1.482       .  S
O461        C477   1.272       .  A
O461       Zn467   2.004       .  S
C462        O478   1.272       .  A
C462        O475   1.275       .  A
C462       C2821   1.482       .  S
O463        C476   1.281       .  A
O463       Cd470   2.110       .  S
O464        C482   1.274       .  A
O464       Cd473   2.050       .  S
O465        C479   1.277       .  A
O465       Cd469   2.078       .  S
O466        C477   1.277       .  A
O466       Cd469   2.094       .  S
Zn467       O478   2.001       .  S
Zn467       O480   1.996       .  S
Zn467       O472   1.923       .  S
O468        C479   1.277       .  A
O468       Cd473   2.078       .  S
Cd469       O471   2.082       .  S
Cd469       O472   2.001       .  S
Cd470       O474   2.100       .  S
Cd470       O483   2.117       .  S
Cd470       O472   2.018       .  S
O471        C481   1.279       .  A
O472       Cd473   1.994       .  S
Cd473       O475   2.081       .  S
O474        C481   1.280       .  A
C476        O480   1.274       .  A
C476       C3216   1.483       .  S
C477       C1597   1.483       .  S
C479       C1741   1.486       .  S
C481       C1584   1.492       .  S
C482        O483   1.281       .  A
C482       C1560   1.486       .  S
O484        C500   1.273       .  A
O484       Zn490   2.009       .  S
C485        O501   1.271       .  A
C485        O498   1.275       .  A
C485       C2928   1.483       .  S
O486        C499   1.280       .  A
O486       Cd493   2.112       .  S
O487        C505   1.277       .  A
O487       Cd496   2.062       .  S
O488        C502   1.276       .  A
O488       Cd492   2.079       .  S
O489        C500   1.275       .  A
O489       Cd492   2.077       .  S
Zn490       O501   1.996       .  S
Zn490       O503   1.988       .  S
Zn490       O495   1.920       .  S
O491        C502   1.276       .  A
O491       Cd496   2.078       .  S
Cd492       O494   2.062       .  S
Cd492       O495   1.995       .  S
Cd493       O497   2.100       .  S
Cd493       O506   2.108       .  S
Cd493       O495   2.020       .  S
O494        C504   1.276       .  A
O495       Cd496   1.993       .  S
Cd496       O498   2.085       .  S
O497        C504   1.280       .  A
C499        O503   1.273       .  A
C499       C2989   1.486       .  S
C500       C1608   1.478       .  S
C502       C1525   1.483       .  S
C504       C1824   1.486       .  S
C505        O506   1.281       .  A
C505       C1632   1.482       .  S
O507        C523   1.274       .  A
O507       Zn513   2.019       .  S
C508        O524   1.273       .  A
C508        O521   1.276       .  A
C508       C1512   1.486       .  S
O509        C522   1.280       .  A
O509       Cd516   2.104       .  S
O510        C528   1.276       .  A
O510       Cd519   2.059       .  S
O511        C525   1.277       .  A
O511       Cd515   2.071       .  S
O512        C523   1.276       .  A
O512       Cd515   2.086       .  S
Zn513       O524   2.012       .  S
Zn513       O526   1.999       .  S
Zn513       O518   1.926       .  S
O514        C525   1.278       .  A
O514       Cd519   2.084       .  S
Cd515       O517   2.082       .  S
Cd515       O518   1.997       .  S
Cd516       O520   2.099       .  S
Cd516       O529   2.110       .  S
Cd516       O518   2.016       .  S
O517        C527   1.278       .  A
O518       Cd519   1.994       .  S
Cd519       O521   2.088       .  S
O520        C527   1.279       .  A
C522        O526   1.274       .  A
C522       C1453   1.481       .  S
C523       C1477   1.485   1_554  S
C525       C1645   1.486       .  S
C527       C2856   1.489       .  S
C528        O529   1.281       .  A
C528       C1549   1.490       .  S
O530        C546   1.275       .  A
O530       Zn536   2.025       .  S
C531        O547   1.273       .  A
C531        O544   1.275       .  A
C531       C1440   1.486       .  S
O532        C545   1.280       .  A
O532       Cd539   2.101       .  S
O533        C551   1.275       .  A
O533       Cd542   2.056       .  S
O534        C548   1.277       .  A
O534       Cd538   2.079       .  S
O535        C546   1.276       .  A
O535       Cd538   2.084       .  S
Zn536       O547   2.013       .  S
Zn536       O549   1.996       .  S
Zn536       O541   1.935       .  S
O537        C548   1.277       .  A
O537       Cd542   2.082       .  S
Cd538       O540   2.073       .  S
Cd538       O541   1.999       .  S
Cd539       O543   2.096       .  S
Cd539       O552   2.112       .  S
Cd539       O541   2.023       .  S
O540        C550   1.277       .  A
O541       Cd542   1.995       .  S
Cd542       O544   2.080       .  S
O543        C550   1.279       .  A
C545        O549   1.274       .  A
C545       C1405   1.483       .  S
C546       C1488   1.484       .  S
C548       C1536   1.483       .  S
C550       C1776   1.487       .  S
C551        O552   1.280       .  A
C551       C1669   1.484       .  S
O553        C569   1.273       .  A
O553       Zn559   2.004       .  S
C554        O570   1.272       .  A
C554        O567   1.275       .  A
C554       C1381   1.487       .  S
O555        C568   1.281       .  A
O555       Cd562   2.116       .  S
O556        C574   1.274       .  A
O556       Cd565   2.043       .  S
O557        C571   1.276       .  A
O557       Cd561   2.079       .  S
O558        C569   1.276       .  A
O558       Cd561   2.082       .  S
Zn559       O570   2.014       .  S
Zn559       O572   1.981       .  S
Zn559       O564   1.926       .  S
O560        C571   1.276       .  A
O560       Cd565   2.074       .  S
Cd561       O563   2.075       .  S
Cd561       O564   2.000       .  S
Cd562       O566   2.096       .  S
Cd562       O575   2.123       .  S
Cd562       O564   2.028       .  S
O563        C573   1.277       .  A
O564       Cd565   1.989       .  S
Cd565       O567   2.084       .  S
O566        C573   1.279       .  A
C568        O572   1.272       .  A
C568       C1320   1.485       .  S
C569       C1333   1.482       .  S
C571       C1368   1.482       .  S
C573       C1957   1.490       .  S
C574        O575   1.283       .  A
C574       C1296   1.491       .  S
O576        C592   1.275       .  A
O576       Zn582   2.023       .  S
C577        O593   1.275       .  A
C577        O590   1.274       .  A
C577       C1237   1.483       .  S
O578        C591   1.281       .  A
O578       Cd585   2.107       .  S
O579        C597   1.276       .  A
O579       Cd588   2.055       .  S
O580        C594   1.275       .  A
O580       Cd584   2.072       .  S
O581        C592   1.274       .  A
O581       Cd584   2.063       .  S
Zn582       O593   2.020       .  S
Zn582       O595   2.011       .  S
Zn582       O587   1.934       .  S
O583        C594   1.277       .  A
O583       Cd588   2.087       .  S
Cd584       O586   2.053       .  S
Cd584       O587   1.985       .  S
Cd585       O589   2.101       .  S
Cd585       O598   2.112       .  S
Cd585       O587   2.018       .  S
O586        C596   1.275       .  A
O587       Cd588   1.989       .  S
Cd588       O590   2.069       .  S
O589        C596   1.279       .  A
C591        O595   1.276       .  A
C591       C1224   1.486       .  S
C592       C1344   1.482       .  S
C594       C1272   1.483       .  S
C596       C3301   1.485       .  S
C597        O598   1.281       .  A
C597       C1189   1.489       .  S
O599        C615   1.275       .  A
O599       Zn605   2.015       .  S
C600        O616   1.274       .  A
C600        O613   1.275       .  A
C600       C3408   1.486       .  S
O601        C614   1.277       .  A
O601       Cd608   2.086       .  S
O602        C620   1.276       .  A
O602       Cd611   2.059       .  S
O603        C617   1.276       .  A
O603       Cd607   2.072       .  S
O604        C615   1.275       .  A
O604       Cd607   2.070       .  S
Zn605       O616   2.025       .  S
Zn605       O618   1.998       .  S
Zn605       O610   1.930       .  S
O606        C617   1.276       .  A
O606       Cd611   2.072       .  S
Cd607       O609   2.075       .  S
Cd607       O610   1.995       .  S
Cd608       O612   2.085       .  S
Cd608       O621   2.090       .  S
Cd608       O610   2.007       .  S
O609        C619   1.277       .  A
O610       Cd611   1.984       .  S
Cd611       O613   2.073       .  S
O612        C619   1.278       .  A
C614        O618   1.275       .  A
C614       C2869   1.475       .  S
C615       C1165   1.483   1_554  S
C617       C1357   1.480       .  S
C619       C2005   1.487   1_545  S
C620        O621   1.278       .  A
C620       C1152   1.482       .  S
O622        C638   1.273       .  A
O622       Zn628   2.001       .  S
C623        O639   1.272       .  A
C623        O636   1.274       .  A
C623       C3240   1.486       .  S
O624        C637   1.282       .  A
O624       Cd631   2.127       .  S
O625        C643   1.274       .  A
O625       Cd634   2.043       .  S
O626        C640   1.276       .  A
O626       Cd630   2.078       .  S
O627        C638   1.277       .  A
O627       Cd630   2.093       .  S
Zn628       O639   2.009       .  S
Zn628       O641   1.975       .  S
Zn628       O633   1.920       .  S
O629        C640   1.276       .  A
O629       Cd634   2.071       .  S
Cd630       O632   2.085       .  S
Cd630       O633   2.006       .  S
Cd631       O635   2.096       .  S
Cd631       O644   2.127       .  S
Cd631       O633   2.023       .  S
O632        C642   1.279       .  A
O633       Cd634   1.990       .  S
Cd634       O636   2.082       .  S
O635        C642   1.280       .  A
C637        O641   1.272       .  A
C637       C3072   1.486       .  S
C638       C1176   1.484       .  S
C640       C1128   1.482       .  S
C642       C1104   1.488       .  S
C643        O644   1.283       .  A
C643       C1200   1.491       .  S
O645        C661   1.275       .  A
O645       Zn651   2.010       .  S
C646        O662   1.272       .  A
C646        O659   1.272       .  A
C646       C1992   1.481       .  S
O647        C660   1.279       .  A
O647       Cd654   2.108       .  S
O648        C666   1.274       .  A
O648       Cd657   2.043       .  S
O649        C663   1.277       .  A
O649       Cd653   2.091       .  S
O650        C661   1.277       .  A
O650       Cd653   2.083       .  S
Zn651       O662   2.010       .  S
Zn651       O664   1.990       .  S
Zn651       O656   1.932       .  S
O652        C663   1.275       .  A
O652       Cd657   2.071       .  S
Cd653       O655   2.083       .  S
Cd653       O656   2.006       .  S
Cd654       O658   2.083       .  S
Cd654       O667   2.109       .  S
Cd654       O656   2.021       .  S
O655        C665   1.278       .  A
O656       Cd657   1.988       .  S
Cd657       O659   2.064       .  S
O658        C665   1.278       .  A
C660        O664   1.272       .  A
C660       C2136   1.475       .  S
C661       C1069   1.484       .  S
C663       C1261   1.485       .  S
C665       C3192   1.485   1_565  S
C666        O667   1.280       .  A
C666       C1141   1.486       .  S
O668        C684   1.274       .  A
O668       Zn674   2.010       .  S
C669        O685   1.272       .  A
C669        O682   1.275       .  A
C669       C2088   1.485       .  S
O670        C683   1.281       .  A
O670       Cd677   2.115       .  S
O671        C689   1.276       .  A
O671       Cd680   2.055       .  S
O672        C686   1.275       .  A
O672       Cd676   2.068       .  S
O673        C684   1.275       .  A
O673       Cd676   2.076       .  S
Zn674       O685   2.005       .  S
Zn674       O687   1.995       .  S
Zn674       O679   1.924       .  S
O675        C686   1.278       .  A
O675       Cd680   2.085       .  S
Cd676       O678   2.073       .  S
Cd676       O679   1.996       .  S
Cd677       O681   2.097       .  S
Cd677       O690   2.112       .  S
Cd677       O679   2.016       .  S
O678        C688   1.277       .  A
O679       Cd680   1.996       .  S
Cd680       O682   2.085       .  S
O681        C688   1.280       .  A
C683        O687   1.274       .  A
C683       C1848   1.490       .  S
C684       C1080   1.483       .  S
C686       C1117   1.482       .  S
C688       C1045   1.488       .  S
C689        O690   1.282       .  A
C689       C1285   1.488       .  S
O691        C707   1.274       .  A
O691       Zn697   2.010       .  S
C692        O708   1.274       .  A
C692        O705   1.276       .  A
C692       C1032   1.481   1_556  S
O693        C706   1.280       .  A
O693       Cd700   2.103       .  S
O694        C712   1.277       .  A
O694       Cd703   2.075       .  S
O695        C709   1.277       .  A
O695       Cd699   2.074       .  S
O696        C707   1.276       .  A
O696       Cd699   2.079       .  S
Zn697       O708   2.009       .  S
Zn697       O710   1.998       .  S
Zn697       O702   1.915       .  S
O698        C709   1.277       .  A
O698       Cd703   2.082       .  S
Cd699       O701   2.059       .  S
Cd699       O702   1.978       .  S
Cd700       O704   2.104       .  S
Cd700       O713   2.085       .  S
Cd700       O702   2.006       .  S
O701        C711   1.276       .  A
O702       Cd703   1.995       .  S
Cd703       O705   2.084       .  S
O704        C711   1.280       .  A
C706        O710   1.274       .  A
C706       C2365   1.475       .  S
C707       C2760   1.483       .  S
C709       C1008   1.480       .  S
C711        C973   1.481       .  S
C712        O713   1.278       .  A
C712       C1464   1.484   1_565  S
O714        C730   1.272       .  A
O714       Zn720   2.004       .  S
C715        O731   1.273       .  A
C715        O728   1.274       .  A
C715       C1021   1.480       .  S
O716        C729   1.281       .  A
O716       Cd723   2.109       .  S
O717        C735   1.276       .  A
O717       Cd726   2.062       .  S
O718        C732   1.278       .  A
O718       Cd722   2.085       .  S
O719        C730   1.277       .  A
O719       Cd722   2.094       .  S
Zn720       O731   2.015       .  S
Zn720       O733   1.982       .  S
Zn720       O725   1.922       .  S
O721        C732   1.275       .  A
O721       Cd726   2.061       .  S
Cd722       O724   2.057       .  S
Cd722       O725   1.994       .  S
Cd723       O727   2.109       .  S
Cd723       O736   2.105       .  S
Cd723       O725   2.021       .  S
O724        C734   1.276       .  A
O725       Cd726   1.988       .  S
Cd726       O728   2.071       .  S
O727        C734   1.282       .  A
C729        O733   1.273       .  A
C729       C2304   1.485       .  S
C730       C2605   1.488       .  S
C732        C960   1.484       .  S
C734        C925   1.487       .  S
C735        O736   1.279       .  A
C735       C1309   1.489       .  S
O737        C753   1.274       .  A
O737       Zn743   2.019       .  S
C738        O754   1.274       .  A
C738        O751   1.276       .  A
C738        C901   1.483       .  S
O739        C752   1.281       .  A
O739       Cd746   2.116       .  S
O740        C758   1.278       .  A
O740       Cd749   2.076       .  S
O741        C755   1.276       .  A
O741       Cd745   2.080       .  S
O742        C753   1.274       .  A
O742       Cd745   2.069       .  S
Zn743       O754   2.010       .  S
Zn743       O756   1.999       .  S
Zn743       O748   1.931       .  S
O744        C755   1.276       .  A
O744       Cd749   2.077       .  S
Cd745       O747   2.045       .  S
Cd745       O748   1.990       .  S
Cd746       O750   2.113       .  S
Cd746       O759   2.097       .  S
Cd746       O748   2.022       .  S
O747        C757   1.273       .  A
O748       Cd749   1.997       .  S
Cd749       O751   2.078       .  S
O750        C757   1.281       .  A
C752        O756   1.274       .  A
C752       C1056   1.483       .  S
C753       C1248   1.483       .  S
C755        C877   1.488       .  S
C757        C936   1.478       .  S
C758        O759   1.280       .  A
C758       C2677   1.490       .  S
O760        C776   1.275       .  A
O760       Zn766   2.022       .  S
C761        O777   1.274       .  A
C761        O774   1.274       .  A
C761        C912   1.484       .  S
O762        C775   1.281       .  A
O762       Cd769   2.114       .  S
O763        C781   1.275       .  A
O763       Cd772   2.057       .  S
O764        C778   1.277       .  A
O764       Cd768   2.090       .  S
O765        C776   1.277       .  A
O765       Cd768   2.082       .  S
Zn766       O777   2.020       .  S
Zn766       O779   2.002       .  S
Zn766       O771   1.934       .  S
O767        C778   1.275       .  A
O767       Cd772   2.067       .  S
Cd768       O770   2.063       .  S
Cd768       O771   1.997       .  S
Cd769       O773   2.115       .  S
Cd769       O782   2.105       .  S
Cd769       O771   2.024       .  S
O770        C780   1.276       .  A
O771       Cd772   1.990       .  S
Cd772       O774   2.070       .  S
O773        C780   1.282       .  A
C775        O779   1.274       .  A
C775       C1093   1.485       .  S
C776       C1392   1.487       .  S
C778        C997   1.484       .  S
C780        C864   1.492   1_556  S
C781        O782   1.280       .  A
C781       C1416   1.487       .  S
O783        C799   1.272       .  A
O783       Zn789   2.007       .  S
C784        O800   1.273       .  A
C784        O797   1.277       .  A
C784        C829   1.483       .  S
O785        C798   1.281       .  A
O785       Cd792   2.128       .  S
O786        C804   1.279       .  A
O786       Cd795   2.082       .  S
O787        C801   1.275       .  A
O787       Cd791   2.071       .  S
O788        C799   1.274       .  A
O788       Cd791   2.081       .  S
Zn789       O800   2.004       .  S
Zn789       O802   1.984       .  S
Zn789       O794   1.927       .  S
O790        C801   1.276       .  A
O790       Cd795   2.084       .  S
Cd791       O793   2.045       .  S
Cd791       O794   1.995       .  S
Cd792       O796   2.119       .  S
Cd792       O805   2.094       .  S
Cd792       O794   2.029       .  S
O793        C803   1.274       .  A
O794       Cd795   2.008       .  S
Cd795       O797   2.088       .  S
O796        C803   1.282       .  A
C798        O802   1.272       .  A
C798       C1573   1.488       .  S
C799       C1429   1.485       .  S
C801        C888   1.487       .  S
C803        C984   1.489       .  S
C804        O805   1.280       .  A
C804       C2568   1.490   1_545  S
O806        C822   1.272       .  A
O806       Zn812   2.015       .  S
C807        O823   1.275       .  A
C807        O820   1.276       .  A
C807        C840   1.485       .  S
O808        C821   1.280       .  A
O808       Cd815   2.110       .  S
O809        C827   1.278       .  A
O809       Cd818   2.084       .  S
O810        C824   1.276       .  A
O810       Cd814   2.071       .  S
O811        C822   1.274       .  A
O811       Cd814   2.077       .  S
Zn812       O823   2.016       .  S
Zn812       O825   1.995       .  S
Zn812       O817   1.934       .  S
O813        C824   1.276       .  A
O813       Cd818   2.074       .  S
Cd814       O816   2.051       .  S
Cd814       O817   1.996       .  S
Cd815       O819   2.117       .  S
Cd815       O828   2.087       .  S
Cd815       O817   2.019       .  S
O816        C826   1.274       .  A
O817       Cd818   2.006       .  S
Cd818       O820   2.081       .  S
O819        C826   1.281       .  A
C821        O825   1.273       .  A
C821       C1693   1.475       .  S
C822       C1501   1.486       .  S
C824        C949   1.484       .  S
C826        C853   1.486       .  S
C827        O828   1.278       .  A
C827       C1213   1.485       .  S
C829        C830   1.407       .  A
C829        C834   1.406       .  A
C830        C831   1.397       .  A
C830        H843   1.083       .  S
C831        C832   1.402       .  A
C831        H844   1.083       .  S
C832        C833   1.408       .  A
C832        C835   1.486       .  S
C833        C834   1.401       .  A
C833        H845   1.082       .  S
C834        H846   1.083       .  S
C835        C836   1.348       .  D
C835        H847   1.085       .  S
C836        C837   1.490       .  S
C836        H848   1.086       .  S
C837        C838   1.405       .  A
C837        C842   1.407       .  A
C838        C839   1.401       .  A
C838        H849   1.083       .  S
C839        C840   1.406       .  A
C839        H850   1.083       .  S
C840        C841   1.406       .  A
C841        C842   1.397       .  A
C841        H851   1.083       .  S
C842        H852   1.081       .  S
C853        C854   1.404       .  A
C853        C858   1.408       .  A
C854        C855   1.393       .  A
C854        H867   1.083       .  S
C855        C856   1.402       .  A
C855        H868   1.084       .  S
C856        C857   1.412       .  A
C856        C859   1.493       .  S
C857        C858   1.411       .  A
C857        H869   1.081       .  S
C858        H870   1.083       .  S
C859        C860   1.350       .  D
C859        H871   1.087       .  S
C860        C861   1.495       .  S
C860        H872   1.085       .  S
C861        C862   1.406       .  A
C861        C866   1.406       .  A
C862        C863   1.408       .  A
C862        H873   1.083       .  S
C863        C864   1.408       .  A
C863        H874   1.083   1_554  S
C864        C865   1.408       .  A
C865        C866   1.396       .  A
C865        H875   1.083       .  S
C866        H876   1.083       .  S
C877        C878   1.407       .  A
C877        C882   1.407       .  A
C878        C879   1.401       .  A
C878        H891   1.083       .  S
C879        C880   1.404       .  A
C879        H892   1.083       .  S
C880        C881   1.408       .  A
C880        C883   1.491       .  S
C881        C882   1.399       .  A
C881        H893   1.082       .  S
C882        H894   1.083       .  S
C883        C884   1.349       .  D
C883        H895   1.085       .  S
C884        C885   1.490       .  S
C884        H896   1.085       .  S
C885        C886   1.404       .  A
C885        C890   1.408       .  A
C886        C887   1.398   1_565  A
C886        H897   1.083   1_565  S
C887        C888   1.406       .  A
C887        H898   1.083       .  S
C888        C889   1.408   1_545  A
C889        C890   1.402       .  A
C889        H899   1.083       .  S
C890        H900   1.081       .  S
C901        C902   1.405       .  A
C901        C906   1.407       .  A
C902        C903   1.398       .  A
C902        H915   1.083       .  S
C903        C904   1.404       .  A
C903        H916   1.083       .  S
C904        C905   1.407       .  A
C904        C907   1.488       .  S
C905        C906   1.398       .  A
C905        H917   1.081       .  S
C906        H918   1.083       .  S
C907        C908   1.348   1_565  D
C907        H919   1.085   1_565  S
C908        C909   1.487       .  S
C908        H920   1.085       .  S
C909        C910   1.403       .  A
C909        C914   1.407       .  A
C910        C911   1.399       .  A
C910        H921   1.083       .  S
C911        C912   1.406       .  A
C911        H922   1.083       .  S
C912        C913   1.406       .  A
C913        C914   1.398       .  A
C913        H923   1.083       .  S
C914        H924   1.082       .  S
C925        C926   1.407       .  A
C925        C930   1.407       .  A
C926        C927   1.406       .  A
C926        H939   1.083       .  S
C927        C928   1.405       .  A
C927        H940   1.083       .  S
C928        C929   1.405       .  A
C928        C931   1.490       .  S
C929        C930   1.394       .  A
C929        H941   1.083       .  S
C930        H942   1.083       .  S
C931        C932   1.348       .  D
C931        H943   1.084       .  S
C932        C933   1.489       .  S
C932        H944   1.087       .  S
C933        C934   1.402       .  A
C933        C938   1.412       .  A
C934        C935   1.392       .  A
C934        H945   1.084       .  S
C935        C936   1.403       .  A
C935        H946   1.084       .  S
C936        C937   1.405       .  A
C937        C938   1.408       .  A
C937        H947   1.083       .  S
C938        H948   1.081       .  S
C949        C950   1.406       .  A
C949        C954   1.407       .  A
C950        C951   1.397       .  A
C950        H963   1.083       .  S
C951        C952   1.403       .  A
C951        H964   1.083       .  S
C952        C953   1.408       .  A
C952        C955   1.487       .  S
C953        C954   1.400       .  A
C953        H965   1.081       .  S
C954        H966   1.083       .  S
C955        C956   1.347   1_545  D
C955        H967   1.085       .  S
C956        C957   1.487       .  S
C956        H968   1.085   1_565  S
C957        C958   1.402       .  A
C957        C962   1.409       .  A
C958        C959   1.397       .  A
C958        H969   1.083       .  S
C959        C960   1.407       .  A
C959        H970   1.083       .  S
C960        C961   1.405       .  A
C961        C962   1.400       .  A
C961        H971   1.083       .  S
C962        H972   1.082       .  S
C973        C974   1.403       .  A
C973        C978   1.407       .  A
C974        C975   1.392   1_565  A
C974        H987   1.083       .  S
C975        C976   1.403   1_545  A
C975        H988   1.084       .  S
C976        C977   1.410       .  A
C976        C979   1.489   1_565  S
C977        C978   1.408       .  A
C977        H989   1.081       .  S
C978        H990   1.083       .  S
C979        C980   1.350       .  D
C979        H991   1.087       .  S
C980        C981   1.491       .  S
C980        H992   1.084   1_545  S
C981        C982   1.407       .  A
C981        C986   1.404       .  A
C982        C983   1.409       .  A
C982        H993   1.083       .  S
C983        C984   1.408       .  A
C983        H994   1.083       .  S
C984        C985   1.407       .  A
C985        C986   1.391       .  A
C985        H995   1.083       .  S
C986        H996   1.083       .  S
C997        C998   1.407       .  A
C997       C1002   1.406       .  A
C998        C999   1.397       .  A
C998       H1011   1.083       .  S
C999       C1000   1.401       .  A
C999       H1012   1.083       .  S
C1000      C1001   1.407       .  A
C1000      C1003   1.484       .  S
C1001      C1002   1.402       .  A
C1001      H1013   1.083       .  S
C1002      H1014   1.083       .  S
C1003      C1004   1.345       .  D
C1003      H1015   1.086       .  S
C1004      C1005   1.485       .  S
C1004      H1016   1.086       .  S
C1005      C1006   1.403   1_545  A
C1005      C1010   1.407       .  A
C1006      C1007   1.398       .  A
C1006      H1017   1.083       .  S
C1007      C1008   1.405       .  A
C1007      H1018   1.083       .  S
C1008      C1009   1.406   1_565  A
C1009      C1010   1.401       .  A
C1009      H1019   1.083       .  S
C1010      H1020   1.083       .  S
C1021      C1022   1.405       .  A
C1021      C1026   1.407       .  A
C1022      C1023   1.398       .  A
C1022      H1035   1.083       .  S
C1023      C1024   1.402       .  A
C1023      H1036   1.083       .  S
C1024      C1025   1.405       .  A
C1024      C1027   1.481       .  S
C1025      C1026   1.399       .  A
C1025      H1037   1.083       .  S
C1026      H1038   1.083       .  S
C1027      C1028   1.346       .  D
C1027      H1039   1.086       .  S
C1028      C1029   1.482       .  S
C1028      H1040   1.086       .  S
C1029      C1030   1.403       .  A
C1029      C1034   1.405       .  A
C1030      C1031   1.400       .  A
C1030      H1041   1.083       .  S
C1031      C1032   1.405       .  A
C1031      H1042   1.083       .  S
C1032      C1033   1.407       .  A
C1033      C1034   1.397       .  A
C1033      H1043   1.083       .  S
C1034      H1044   1.083       .  S
C1045      C1046   1.408       .  A
C1045      C1050   1.407       .  A
C1046      C1047   1.401       .  A
C1046      H1059   1.083       .  S
C1047      C1048   1.404       .  A
C1047      H1060   1.083       .  S
C1048      C1049   1.408       .  A
C1048      C1051   1.491       .  S
C1049      C1050   1.402       .  A
C1049      H1061   1.082       .  S
C1050      H1062   1.083       .  S
C1051      C1052   1.347       .  D
C1051      H1063   1.086       .  S
C1052      C1053   1.486       .  S
C1052      H1064   1.086       .  S
C1053      C1054   1.400       .  A
C1053      C1058   1.409       .  A
C1054      C1055   1.395       .  A
C1054      H1065   1.083       .  S
C1055      C1056   1.405       .  A
C1055      H1066   1.084       .  S
C1056      C1057   1.407       .  A
C1057      C1058   1.408       .  A
C1057      H1067   1.083       .  S
C1058      H1068   1.083       .  S
C1069      C1070   1.406       .  A
C1069      C1074   1.406       .  A
C1070      C1071   1.396       .  A
C1070      H1083   1.083       .  S
C1071      C1072   1.403       .  A
C1071      H1084   1.084       .  S
C1072      C1073   1.408       .  A
C1072      C1075   1.487       .  S
C1073      C1074   1.400       .  A
C1073      H1085   1.081       .  S
C1074      H1086   1.083       .  S
C1075      C1076   1.348       .  D
C1075      H1087   1.084       .  S
C1076      C1077   1.489       .  S
C1076      H1088   1.085       .  S
C1077      C1078   1.405       .  A
C1077      C1082   1.408       .  A
C1078      C1079   1.399       .  A
C1078      H1089   1.083       .  S
C1079      C1080   1.405       .  A
C1079      H1090   1.083       .  S
C1080      C1081   1.406       .  A
C1081      C1082   1.397       .  A
C1081      H1091   1.083       .  S
C1082      H1092   1.081       .  S
C1093      C1094   1.405       .  A
C1093      C1098   1.406       .  A
C1094      C1095   1.406       .  A
C1094      H1107   1.083       .  S
C1095      C1096   1.408       .  A
C1095      H1108   1.083       .  S
C1096      C1097   1.406       .  A
C1096      C1099   1.492       .  S
C1097      C1098   1.397       .  A
C1097      H1109   1.082       .  S
C1098      H1110   1.083       .  S
C1099      C1100   1.350       .  D
C1099      H1111   1.086       .  S
C1100      C1101   1.491       .  S
C1100      H1112   1.086       .  S
C1101      C1102   1.405       .  A
C1101      C1106   1.408       .  A
C1102      C1103   1.401       .  A
C1102      H1113   1.083       .  S
C1103      C1104   1.406       .  A
C1103      H1114   1.083       .  S
C1104      C1105   1.407       .  A
C1105      C1106   1.403       .  A
C1105      H1115   1.083       .  S
C1106      H1116   1.082       .  S
C1117      C1118   1.405       .  A
C1117      C1122   1.407       .  A
C1118      C1119   1.399       .  A
C1118      H1131   1.083       .  S
C1119      C1120   1.403       .  A
C1119      H1132   1.083       .  S
C1120      C1121   1.405       .  A
C1120      C1123   1.482       .  S
C1121      C1122   1.399       .  A
C1121      H1133   1.083       .  S
C1122      H1134   1.083       .  S
C1123      C1124   1.346   1_565  D
C1123      H1135   1.087   1_565  S
C1124      C1125   1.482       .  S
C1124      H1136   1.086       .  S
C1125      C1126   1.403       .  A
C1125      C1130   1.405       .  A
C1126      C1127   1.401       .  A
C1126      H1137   1.083       .  S
C1127      C1128   1.407       .  A
C1127      H1138   1.083       .  S
C1128      C1129   1.405       .  A
C1129      C1130   1.397       .  A
C1129      H1139   1.083       .  S
C1130      H1140   1.083       .  S
C1141      C1142   1.406       .  A
C1141      C1146   1.409       .  A
C1142      C1143   1.388       .  A
C1142      H1155   1.083       .  S
C1143      C1144   1.399       .  A
C1143      H1156   1.084       .  S
C1144      C1145   1.410       .  A
C1144      C1147   1.483       .  S
C1145      C1146   1.409       .  A
C1145      H1157   1.082       .  S
C1146      H1158   1.083       .  S
C1147      C1148   1.346   1_565  D
C1147      H1159   1.087   1_565  S
C1148      C1149   1.488       .  S
C1148      H1160   1.085       .  S
C1149      C1150   1.405       .  A
C1149      C1154   1.406       .  A
C1150      C1151   1.405       .  A
C1150      H1161   1.083       .  S
C1151      C1152   1.408       .  A
C1151      H1162   1.083       .  S
C1152      C1153   1.404       .  A
C1153      C1154   1.392       .  A
C1153      H1163   1.083       .  S
C1154      H1164   1.083       .  S
C1165      C1166   1.406       .  A
C1165      C1170   1.406       .  A
C1166      C1167   1.398       .  A
C1166      H1179   1.083       .  S
C1167      C1168   1.404       .  A
C1167      H1180   1.083       .  S
C1168      C1169   1.409       .  A
C1168      C1171   1.491       .  S
C1169      C1170   1.398       .  A
C1169      H1181   1.080       .  S
C1170      H1182   1.083       .  S
C1171      C1172   1.348       .  D
C1171      H1183   1.085       .  S
C1172      C1173   1.487       .  S
C1172      H1184   1.084       .  S
C1173      C1174   1.402       .  A
C1173      C1178   1.409       .  A
C1174      C1175   1.395       .  A
C1174      H1185   1.083       .  S
C1175      C1176   1.406       .  A
C1175      H1186   1.083       .  S
C1176      C1177   1.406       .  A
C1177      C1178   1.403       .  A
C1177      H1187   1.083       .  S
C1178      H1188   1.082       .  S
C1189      C1190   1.408       .  A
C1189      C1194   1.407       .  A
C1190      C1191   1.409       .  A
C1190      H1203   1.083       .  S
C1191      C1192   1.407       .  A
C1191      H1204   1.083       .  S
C1192      C1193   1.405       .  A
C1192      C1195   1.494       .  S
C1193      C1194   1.393       .  A
C1193      H1205   1.083       .  S
C1194      H1206   1.083       .  S
C1195      C1196   1.349       .  D
C1195      H1207   1.085       .  S
C1196      C1197   1.490       .  S
C1196      H1208   1.087       .  S
C1197      C1198   1.401       .  A
C1197      C1202   1.411       .  A
C1198      C1199   1.391       .  A
C1198      H1209   1.084       .  S
C1199      C1200   1.407       .  A
C1199      H1210   1.083       .  S
C1200      C1201   1.409       .  A
C1201      C1202   1.412       .  A
C1201      H1211   1.083       .  S
C1202      H1212   1.081       .  S
C1213      C1214   1.406       .  A
C1213      C1218   1.407       .  A
C1214      C1215   1.400       .  A
C1214      H1227   1.083       .  S
C1215      C1216   1.404       .  A
C1215      H1228   1.083       .  S
C1216      C1217   1.408       .  A
C1216      C1219   1.489       .  S
C1217      C1218   1.403       .  A
C1217      H1229   1.082       .  S
C1218      H1230   1.083       .  S
C1219      C1220   1.348       .  D
C1219      H1231   1.086       .  S
C1220      C1221   1.490       .  S
C1220      H1232   1.086       .  S
C1221      C1222   1.406       .  A
C1221      C1226   1.406       .  A
C1222      C1223   1.404       .  A
C1222      H1233   1.083       .  S
C1223      C1224   1.406       .  A
C1223      H1234   1.083       .  S
C1224      C1225   1.407       .  A
C1225      C1226   1.398       .  A
C1225      H1235   1.083       .  S
C1226      H1236   1.082       .  S
C1237      C1238   1.406       .  A
C1237      C1242   1.406       .  A
C1238      C1239   1.398       .  A
C1238      H1251   1.083       .  S
C1239      C1240   1.404       .  A
C1239      H1252   1.083       .  S
C1240      C1241   1.408       .  A
C1240      C1243   1.488       .  S
C1241      C1242   1.398       .  A
C1241      H1253   1.081       .  S
C1242      H1254   1.083       .  S
C1243      C1244   1.348       .  D
C1243      H1255   1.085   1_545  S
C1244      C1245   1.487   1_545  S
C1244      H1256   1.084       .  S
C1245      C1246   1.403       .  A
C1245      C1250   1.408       .  A
C1246      C1247   1.398       .  A
C1246      H1257   1.083       .  S
C1247      C1248   1.406       .  A
C1247      H1258   1.083       .  S
C1248      C1249   1.406       .  A
C1249      C1250   1.399       .  A
C1249      H1259   1.083       .  S
C1250      H1260   1.081       .  S
C1261      C1262   1.406       .  A
C1261      C1266   1.406   1_565  A
C1262      C1263   1.399       .  A
C1262      H1275   1.083       .  S
C1263      C1264   1.403   1_565  A
C1263      H1276   1.083       .  S
C1264      C1265   1.407       .  A
C1264      C1267   1.488       .  S
C1265      C1266   1.402       .  A
C1265      H1277   1.082       .  S
C1266      H1278   1.083       .  S
C1267      C1268   1.347       .  D
C1267      H1279   1.086       .  S
C1268      C1269   1.487       .  S
C1268      H1280   1.086       .  S
C1269      C1270   1.403       .  A
C1269      C1274   1.407       .  A
C1270      C1271   1.400       .  A
C1270      H1281   1.083       .  S
C1271      C1272   1.406       .  A
C1271      H1282   1.083       .  S
C1272      C1273   1.406       .  A
C1273      C1274   1.402       .  A
C1273      H1283   1.083       .  S
C1274      H1284   1.083       .  S
C1285      C1286   1.407       .  A
C1285      C1290   1.406       .  A
C1286      C1287   1.408       .  A
C1286      H1299   1.083       .  S
C1287      C1288   1.407       .  A
C1287      H1300   1.083       .  S
C1288      C1289   1.406       .  A
C1288      C1291   1.494       .  S
C1289      C1290   1.394       .  A
C1289      H1301   1.082       .  S
C1290      H1302   1.083       .  S
C1291      C1292   1.349       .  D
C1291      H1303   1.085       .  S
C1292      C1293   1.489       .  S
C1292      H1304   1.086       .  S
C1293      C1294   1.400       .  A
C1293      C1298   1.411       .  A
C1294      C1295   1.390       .  A
C1294      H1305   1.084       .  S
C1295      C1296   1.407   1_556  A
C1295      H1306   1.083       .  S
C1296      C1297   1.409   1_554  A
C1297      C1298   1.411       .  A
C1297      H1307   1.083   1_556  S
C1298      H1308   1.082       .  S
C1309      C1310   1.405       .  A
C1309      C1314   1.409       .  A
C1310      C1311   1.394       .  A
C1310      H1323   1.083       .  S
C1311      C1312   1.403       .  A
C1311      H1324   1.084       .  S
C1312      C1313   1.410       .  A
C1312      C1315   1.491       .  S
C1313      C1314   1.408       .  A
C1313      H1325   1.081       .  S
C1314      H1326   1.083       .  S
C1315      C1316   1.350       .  D
C1315      H1327   1.086       .  S
C1316      C1317   1.493       .  S
C1316      H1328   1.085       .  S
C1317      C1318   1.408       .  A
C1317      C1322   1.405       .  A
C1318      C1319   1.408       .  A
C1318      H1329   1.083       .  S
C1319      C1320   1.407       .  A
C1319      H1330   1.083       .  S
C1320      C1321   1.406       .  A
C1321      C1322   1.391       .  A
C1321      H1331   1.083       .  S
C1322      H1332   1.082       .  S
C1333      C1334   1.407       .  A
C1333      C1338   1.405       .  A
C1334      C1335   1.397       .  A
C1334      H1347   1.083       .  S
C1335      C1336   1.402       .  A
C1335      H1348   1.083       .  S
C1336      C1337   1.408       .  A
C1336      C1339   1.485       .  S
C1337      C1338   1.399       .  A
C1337      H1349   1.082       .  S
C1338      H1350   1.083       .  S
C1339      C1340   1.347   1_565  D
C1339      H1351   1.084       .  S
C1340      C1341   1.487       .  S
C1340      H1352   1.086   1_545  S
C1341      C1342   1.403       .  A
C1341      C1346   1.408       .  A
C1342      C1343   1.396       .  A
C1342      H1353   1.083       .  S
C1343      C1344   1.405       .  A
C1343      H1354   1.083       .  S
C1344      C1345   1.406       .  A
C1345      C1346   1.399       .  A
C1345      H1355   1.083       .  S
C1346      H1356   1.081       .  S
C1357      C1358   1.405       .  A
C1357      C1362   1.406   1_545  A
C1358      C1359   1.397       .  A
C1358      H1371   1.083       .  S
C1359      C1360   1.402   1_545  A
C1359      H1372   1.083       .  S
C1360      C1361   1.406       .  A
C1360      C1363   1.482       .  S
C1361      C1362   1.400       .  A
C1361      H1373   1.083       .  S
C1362      H1374   1.083       .  S
C1363      C1364   1.345       .  D
C1363      H1375   1.087       .  S
C1364      C1365   1.483       .  S
C1364      H1376   1.086       .  S
C1365      C1366   1.403       .  A
C1365      C1370   1.406       .  A
C1366      C1367   1.400       .  A
C1366      H1377   1.083       .  S
C1367      C1368   1.406       .  A
C1367      H1378   1.083       .  S
C1368      C1369   1.406       .  A
C1369      C1370   1.398       .  A
C1369      H1379   1.083       .  S
C1370      H1380   1.083       .  S
C1381      C1382   1.406       .  A
C1381      C1386   1.407       .  A
C1382      C1383   1.401       .  A
C1382      H1395   1.083       .  S
C1383      C1384   1.405       .  A
C1383      H1396   1.083   1_554  S
C1384      C1385   1.408       .  A
C1384      C1387   1.492   1_565  S
C1385      C1386   1.399       .  A
C1385      H1397   1.081       .  S
C1386      H1398   1.083       .  S
C1387      C1388   1.351       .  D
C1387      H1399   1.084   1_554  S
C1388      C1389   1.491   1_554  S
C1388      H1400   1.084   1_545  S
C1389      C1390   1.405       .  A
C1389      C1394   1.408       .  A
C1390      C1391   1.400       .  A
C1390      H1401   1.083   1_556  S
C1391      C1392   1.406       .  A
C1391      H1402   1.083       .  S
C1392      C1393   1.407       .  A
C1393      C1394   1.400       .  A
C1393      H1403   1.083       .  S
C1394      H1404   1.081       .  S
C1405      C1406   1.406       .  A
C1405      C1410   1.406       .  A
C1406      C1407   1.404       .  A
C1406      H1419   1.083       .  S
C1407      C1408   1.406       .  A
C1407      H1420   1.083       .  S
C1408      C1409   1.406       .  A
C1408      C1411   1.489       .  S
C1409      C1410   1.394       .  A
C1409      H1421   1.082       .  S
C1410      H1422   1.083       .  S
C1411      C1412   1.348       .  D
C1411      H1423   1.085       .  S
C1412      C1413   1.489       .  S
C1412      H1424   1.086       .  S
C1413      C1414   1.402       .  A
C1413      C1418   1.410       .  A
C1414      C1415   1.394       .  A
C1414      H1425   1.084       .  S
C1415      C1416   1.406       .  A
C1415      H1426   1.083       .  S
C1416      C1417   1.407       .  A
C1417      C1418   1.405       .  A
C1417      H1427   1.083       .  S
C1418      H1428   1.081       .  S
C1429      C1430   1.406       .  A
C1429      C1434   1.407       .  A
C1430      C1431   1.401       .  A
C1430      H1443   1.083       .  S
C1431      C1432   1.406       .  A
C1431      H1444   1.083       .  S
C1432      C1433   1.407       .  A
C1432      C1435   1.490       .  S
C1433      C1434   1.397       .  A
C1433      H1445   1.081       .  S
C1434      H1446   1.083       .  S
C1435      C1436   1.351       .  D
C1435      H1447   1.084       .  S
C1436      C1437   1.490       .  S
C1436      H1448   1.084       .  S
C1437      C1438   1.405       .  A
C1437      C1442   1.407       .  A
C1438      C1439   1.400       .  A
C1438      H1449   1.083       .  S
C1439      C1440   1.405       .  A
C1439      H1450   1.083       .  S
C1440      C1441   1.408       .  A
C1441      C1442   1.399       .  A
C1441      H1451   1.083       .  S
C1442      H1452   1.081       .  S
C1453      C1454   1.405       .  A
C1453      C1458   1.406       .  A
C1454      C1455   1.404       .  A
C1454      H1467   1.083       .  S
C1455      C1456   1.405       .  A
C1455      H1468   1.083       .  S
C1456      C1457   1.404       .  A
C1456      C1459   1.485       .  S
C1457      C1458   1.395       .  A
C1457      H1469   1.083       .  S
C1458      H1470   1.083       .  S
C1459      C1460   1.346   1_554  D
C1459      H1471   1.086       .  S
C1460      C1461   1.483       .  S
C1460      H1472   1.087       .  S
C1461      C1462   1.402       .  A
C1461      C1466   1.406   1_556  A
C1462      C1463   1.399       .  A
C1462      H1473   1.083       .  S
C1463      C1464   1.406       .  A
C1463      H1474   1.083       .  S
C1464      C1465   1.407       .  A
C1465      C1466   1.400   1_556  A
C1465      H1475   1.083   1_556  S
C1466      H1476   1.083       .  S
C1477      C1478   1.405       .  A
C1477      C1482   1.408       .  A
C1478      C1479   1.401       .  A
C1478      H1491   1.083       .  S
C1479      C1480   1.404       .  A
C1479      H1492   1.083       .  S
C1480      C1481   1.405       .  A
C1480      C1483   1.487       .  S
C1481      C1482   1.400       .  A
C1481      H1493   1.083       .  S
C1482      H1494   1.083   1_556  S
C1483      C1484   1.348       .  D
C1483      H1495   1.086       .  S
C1484      C1485   1.487       .  S
C1484      H1496   1.086       .  S
C1485      C1486   1.404       .  A
C1485      C1490   1.405       .  A
C1486      C1487   1.402       .  A
C1486      H1497   1.083       .  S
C1487      C1488   1.406       .  A
C1487      H1498   1.083       .  S
C1488      C1489   1.406       .  A
C1489      C1490   1.400       .  A
C1489      H1499   1.083       .  S
C1490      H1500   1.083       .  S
C1501      C1502   1.405       .  A
C1501      C1506   1.407       .  A
C1502      C1503   1.400       .  A
C1502      H1515   1.083       .  S
C1503      C1504   1.406       .  A
C1503      H1516   1.083       .  S
C1504      C1505   1.409       .  A
C1504      C1507   1.494       .  S
C1505      C1506   1.400       .  A
C1505      H1517   1.080       .  S
C1506      H1518   1.083       .  S
C1507      C1508   1.351       .  D
C1507      H1519   1.084       .  S
C1508      C1509   1.491       .  S
C1508      H1520   1.082       .  S
C1509      C1510   1.405       .  A
C1509      C1514   1.407       .  A
C1510      C1511   1.401       .  A
C1510      H1521   1.083       .  S
C1511      C1512   1.406       .  A
C1511      H1522   1.083       .  S
C1512      C1513   1.407       .  A
C1513      C1514   1.399       .  A
C1513      H1523   1.083       .  S
C1514      H1524   1.081       .  S
C1525      C1526   1.406       .  A
C1525      C1530   1.406       .  A
C1526      C1527   1.399       .  A
C1526      H1539   1.083       .  S
C1527      C1528   1.402       .  A
C1527      H1540   1.083       .  S
C1528      C1529   1.406       .  A
C1528      C1531   1.485       .  S
C1529      C1530   1.401       .  A
C1529      H1541   1.083       .  S
C1530      H1542   1.083       .  S
C1531      C1532   1.346       .  D
C1531      H1543   1.087       .  S
C1532      C1533   1.485       .  S
C1532      H1544   1.087       .  S
C1533      C1534   1.403       .  A
C1533      C1538   1.406       .  A
C1534      C1535   1.399       .  A
C1534      H1545   1.083       .  S
C1535      C1536   1.406       .  A
C1535      H1546   1.083       .  S
C1536      C1537   1.406       .  A
C1537      C1538   1.401       .  A
C1537      H1547   1.083       .  S
C1538      H1548   1.083       .  S
C1549      C1550   1.408       .  A
C1549      C1554   1.407       .  A
C1550      C1551   1.408       .  A
C1550      H1563   1.083       .  S
C1551      C1552   1.406       .  A
C1551      H1564   1.083       .  S
C1552      C1553   1.406       .  A
C1552      C1555   1.493       .  S
C1553      C1554   1.394       .  A
C1553      H1565   1.083       .  S
C1554      H1566   1.083       .  S
C1555      C1556   1.349       .  D
C1555      H1567   1.084       .  S
C1556      C1557   1.493       .  S
C1556      H1568   1.087       .  S
C1557      C1558   1.403       .  A
C1557      C1562   1.412       .  A
C1558      C1559   1.392       .  A
C1558      H1569   1.084       .  S
C1559      C1560   1.404       .  A
C1559      H1570   1.083       .  S
C1560      C1561   1.407       .  A
C1561      C1562   1.410       .  A
C1561      H1571   1.083       .  S
C1562      H1572   1.081       .  S
C1573      C1574   1.405       .  A
C1573      C1578   1.407       .  A
C1574      C1575   1.392       .  A
C1574      H1587   1.083       .  S
C1575      C1576   1.402       .  A
C1575      H1588   1.084       .  S
C1576      C1577   1.413       .  A
C1576      C1579   1.495       .  S
C1577      C1578   1.412       .  A
C1577      H1589   1.081       .  S
C1578      H1590   1.083       .  S
C1579      C1580   1.351       .  D
C1579      H1591   1.083       .  S
C1580      C1581   1.502       .  S
C1580      H1592   1.085       .  S
C1581      C1582   1.407       .  A
C1581      C1586   1.411       .  A
C1582      C1583   1.405       .  A
C1582      H1593   1.083       .  S
C1583      C1584   1.408       .  A
C1583      H1594   1.083       .  S
C1584      C1585   1.406       .  A
C1585      C1586   1.400       .  A
C1585      H1595   1.083       .  S
C1586      H1596   1.080       .  S
C1597      C1598   1.407       .  A
C1597      C1602   1.406       .  A
C1598      C1599   1.396       .  A
C1598      H1611   1.083       .  S
C1599      C1600   1.400       .  A
C1599      H1612   1.084       .  S
C1600      C1601   1.408       .  A
C1600      C1603   1.483       .  S
C1601      C1602   1.403       .  A
C1601      H1613   1.082       .  S
C1602      H1614   1.083       .  S
C1603      C1604   1.344       .  D
C1603      H1615   1.087       .  S
C1604      C1605   1.483       .  S
C1604      H1616   1.087       .  S
C1605      C1606   1.401       .  A
C1605      C1610   1.408       .  A
C1606      C1607   1.397       .  A
C1606      H1617   1.083       .  S
C1607      C1608   1.406       .  A
C1607      H1618   1.083       .  S
C1608      C1609   1.404       .  A
C1609      C1610   1.400       .  A
C1609      H1619   1.083       .  S
C1610      H1620   1.083       .  S
C1621      C1622   1.404   1_554  A
C1621      C1626   1.406   1_554  A
C1622      C1623   1.394       .  A
C1622      H1635   1.084       .  S
C1623      C1624   1.403       .  A
C1623      H1636   1.084       .  S
C1624      C1625   1.411       .  A
C1624      C1627   1.491       .  S
C1625      C1626   1.408       .  A
C1625      H1637   1.081       .  S
C1626      H1638   1.083   1_556  S
C1627      C1628   1.349       .  D
C1627      H1639   1.086       .  S
C1628      C1629   1.491       .  S
C1628      H1640   1.084       .  S
C1629      C1630   1.406       .  A
C1629      C1634   1.407       .  A
C1630      C1631   1.406       .  A
C1630      H1641   1.083       .  S
C1631      C1632   1.406       .  A
C1631      H1642   1.083       .  S
C1632      C1633   1.404       .  A
C1633      C1634   1.395       .  A
C1633      H1643   1.083       .  S
C1634      H1644   1.082       .  S
C1645      C1646   1.407       .  A
C1645      C1650   1.407       .  A
C1646      C1647   1.397       .  A
C1646      H1659   1.083       .  S
C1647      C1648   1.402       .  A
C1647      H1660   1.083       .  S
C1648      C1649   1.409       .  A
C1648      C1651   1.489       .  S
C1649      C1650   1.402       .  A
C1649      H1661   1.082       .  S
C1650      H1662   1.083       .  S
C1651      C1652   1.348       .  D
C1651      H1663   1.085       .  S
C1652      C1653   1.491       .  S
C1652      H1664   1.086       .  S
C1653      C1654   1.403       .  A
C1653      C1658   1.409       .  A
C1654      C1655   1.398       .  A
C1654      H1665   1.083       .  S
C1655      C1656   1.407       .  A
C1655      H1666   1.083       .  S
C1656      C1657   1.406       .  A
C1657      C1658   1.401       .  A
C1657      H1667   1.083       .  S
C1658      H1668   1.081       .  S
C1669      C1670   1.404       .  A
C1669      C1674   1.407       .  A
C1670      C1671   1.393       .  A
C1670      H1683   1.083       .  S
C1671      C1672   1.402       .  A
C1671      H1684   1.084       .  S
C1672      C1673   1.411       .  A
C1672      C1675   1.490       .  S
C1673      C1674   1.410       .  A
C1673      H1685   1.081       .  S
C1674      H1686   1.083       .  S
C1675      C1676   1.348       .  D
C1675      H1687   1.087       .  S
C1676      C1677   1.492       .  S
C1676      H1688   1.085       .  S
C1677      C1678   1.405       .  A
C1677      C1682   1.405       .  A
C1678      C1679   1.406       .  A
C1678      H1689   1.083       .  S
C1679      C1680   1.408       .  A
C1679      H1690   1.083       .  S
C1680      C1681   1.407       .  A
C1681      C1682   1.395       .  A
C1681      H1691   1.083       .  S
C1682      H1692   1.083       .  S
C1693      C1694   1.402       .  A
C1693      C1698   1.404       .  A
C1694      C1695   1.394       .  A
C1694      H1707   1.084       .  S
C1695      C1696   1.402       .  A
C1695      H1708   1.084       .  S
C1696      C1697   1.411       .  A
C1696      C1699   1.489       .  S
C1697      C1698   1.407       .  A
C1697      H1709   1.081       .  S
C1698      H1710   1.083       .  S
C1699      C1700   1.348       .  D
C1699      H1711   1.085       .  S
C1700      C1701   1.493       .  S
C1700      H1712   1.085       .  S
C1701      C1702   1.404       .  A
C1701      C1706   1.409       .  A
C1702      C1703   1.402       .  A
C1702      H1713   1.083       .  S
C1703      C1704   1.407       .  A
C1703      H1714   1.083       .  S
C1704      C1705   1.406       .  A
C1705      C1706   1.400       .  A
C1705      H1715   1.083       .  S
C1706      H1716   1.081       .  S
C1717      C1718   1.406       .  A
C1717      C1722   1.405       .  A
C1718      C1719   1.396       .  A
C1718      H1731   1.083       .  S
C1719      C1720   1.402       .  A
C1719      H1732   1.084       .  S
C1720      C1721   1.408       .  A
C1720      C1723   1.484       .  S
C1721      C1722   1.399       .  A
C1721      H1733   1.082       .  S
C1722      H1734   1.083       .  S
C1723      C1724   1.348       .  D
C1723      H1735   1.082       .  S
C1724      C1725   1.491       .  S
C1724      H1736   1.086       .  S
C1725      C1726   1.406       .  A
C1725      C1730   1.409       .  A
C1726      C1727   1.398       .  A
C1726      H1737   1.083       .  S
C1727      C1728   1.405       .  A
C1727      H1738   1.083       .  S
C1728      C1729   1.405       .  A
C1729      C1730   1.397       .  A
C1729      H1739   1.083       .  S
C1730      H1740   1.079       .  S
C1741      C1742   1.406       .  A
C1741      C1746   1.407       .  A
C1742      C1743   1.399       .  A
C1742      H1755   1.083       .  S
C1743      C1744   1.404       .  A
C1743      H1756   1.083       .  S
C1744      C1745   1.407       .  A
C1744      C1747   1.488       .  S
C1745      C1746   1.400       .  A
C1745      H1757   1.082       .  S
C1746      H1758   1.083       .  S
C1747      C1748   1.348       .  D
C1747      H1759   1.085       .  S
C1748      C1749   1.489       .  S
C1748      H1760   1.085       .  S
C1749      C1750   1.404       .  A
C1749      C1754   1.407       .  A
C1750      C1751   1.399       .  A
C1750      H1761   1.083       .  S
C1751      C1752   1.406       .  A
C1751      H1762   1.083       .  S
C1752      C1753   1.407       .  A
C1753      C1754   1.399       .  A
C1753      H1763   1.083       .  S
C1754      H1764   1.082       .  S
C1765      C1766   1.405       .  A
C1765      C1770   1.405       .  A
C1766      C1767   1.395       .  A
C1766      H1779   1.084       .  S
C1767      C1768   1.401       .  A
C1767      H1780   1.083       .  S
C1768      C1769   1.410       .  A
C1768      C1771   1.488       .  S
C1769      C1770   1.406       .  A
C1769      H1781   1.082       .  S
C1770      H1782   1.083       .  S
C1771      C1772   1.347       .  D
C1771      H1783   1.086       .  S
C1772      C1773   1.490       .  S
C1772      H1784   1.086       .  S
C1773      C1774   1.402       .  A
C1773      C1778   1.409       .  A
C1774      C1775   1.398       .  A
C1774      H1785   1.083       .  S
C1775      C1776   1.406       .  A
C1775      H1786   1.083       .  S
C1776      C1777   1.407       .  A
C1777      C1778   1.404       .  A
C1777      H1787   1.083       .  S
C1778      H1788   1.082       .  S
C1789      C1790   1.406       .  A
C1789      C1794   1.407       .  A
C1790      C1791   1.399       .  A
C1790      H1803   1.083       .  S
C1791      C1792   1.404       .  A
C1791      H1804   1.083   1_554  S
C1792      C1793   1.408       .  A
C1792      C1795   1.489       .  S
C1793      C1794   1.399       .  A
C1793      H1805   1.081       .  S
C1794      H1806   1.083       .  S
C1795      C1796   1.350       .  D
C1795      H1807   1.084   1_554  S
C1796      C1797   1.490   1_554  S
C1796      H1808   1.084       .  S
C1797      C1798   1.405       .  A
C1797      C1802   1.408       .  A
C1798      C1799   1.399       .  A
C1798      H1809   1.083   1_556  S
C1799      C1800   1.405       .  A
C1799      H1810   1.083       .  S
C1800      C1801   1.407       .  A
C1801      C1802   1.399       .  A
C1801      H1811   1.083       .  S
C1802      H1812   1.081       .  S
C1813      C1814   1.406       .  A
C1813      C1818   1.407       .  A
C1814      C1815   1.406       .  A
C1814      H1827   1.083       .  S
C1815      C1816   1.407       .  A
C1815      H1828   1.083       .  S
C1816      C1817   1.405       .  A
C1816      C1819   1.489       .  S
C1817      C1818   1.392       .  A
C1817      H1829   1.082       .  S
C1818      H1830   1.083       .  S
C1819      C1820   1.348       .  D
C1819      H1831   1.085       .  S
C1820      C1821   1.487       .  S
C1820      H1832   1.087       .  S
C1821      C1822   1.402       .  A
C1821      C1826   1.409       .  A
C1822      C1823   1.395       .  A
C1822      H1833   1.084       .  S
C1823      C1824   1.406       .  A
C1823      H1834   1.083       .  S
C1824      C1825   1.407       .  A
C1825      C1826   1.405       .  A
C1825      H1835   1.083       .  S
C1826      H1836   1.081       .  S
C1837      C1838   1.406       .  A
C1837      C1842   1.409       .  A
C1838      C1839   1.395       .  A
C1838      H1851   1.083       .  S
C1839      C1840   1.402       .  A
C1839      H1852   1.084       .  S
C1840      C1841   1.409       .  A
C1840      C1843   1.488       .  S
C1841      C1842   1.407       .  A
C1841      H1853   1.082       .  S
C1842      H1854   1.083       .  S
C1843      C1844   1.349       .  D
C1843      H1855   1.087       .  S
C1844      C1845   1.491       .  S
C1844      H1856   1.085       .  S
C1845      C1846   1.407       .  A
C1845      C1850   1.404       .  A
C1846      C1847   1.408       .  A
C1846      H1857   1.083       .  S
C1847      C1848   1.409       .  A
C1847      H1858   1.083       .  S
C1848      C1849   1.407       .  A
C1849      C1850   1.393       .  A
C1849      H1859   1.083       .  S
C1850      H1860   1.083       .  S
C1861      C1862   1.407       .  A
C1861      C1866   1.406       .  A
C1862      C1863   1.395       .  A
C1862      H1875   1.083       .  S
C1863      C1864   1.401       .  A
C1863      H1876   1.084       .  S
C1864      C1865   1.409       .  A
C1864      C1867   1.486       .  S
C1865      C1866   1.402       .  A
C1865      H1877   1.082       .  S
C1866      H1878   1.083       .  S
C1867      C1868   1.347       .  D
C1867      H1879   1.085       .  S
C1868      C1869   1.489       .  S
C1868      H1880   1.086       .  S
C1869      C1870   1.402       .  A
C1869      C1874   1.410       .  A
C1870      C1871   1.397       .  A
C1870      H1881   1.084       .  S
C1871      C1872   1.407       .  A
C1871      H1882   1.083       .  S
C1872      C1873   1.405       .  A
C1873      C1874   1.401       .  A
C1873      H1883   1.083       .  S
C1874      H1884   1.081       .  S
C1885      C1886   1.407       .  A
C1885      C1890   1.406       .  A
C1886      C1887   1.397       .  A
C1886      H1899   1.083       .  S
C1887      C1888   1.402       .  A
C1887      H1900   1.083       .  S
C1888      C1889   1.408       .  A
C1888      C1891   1.486       .  S
C1889      C1890   1.399       .  A
C1889      H1901   1.082       .  S
C1890      H1902   1.083       .  S
C1891      C1892   1.347       .  D
C1891      H1903   1.084       .  S
C1892      C1893   1.488       .  S
C1892      H1904   1.085       .  S
C1893      C1894   1.404       .  A
C1893      C1898   1.408       .  A
C1894      C1895   1.398       .  A
C1894      H1905   1.083       .  S
C1895      C1896   1.405       .  A
C1895      H1906   1.083       .  S
C1896      C1897   1.406       .  A
C1897      C1898   1.398       .  A
C1897      H1907   1.083       .  S
C1898      H1908   1.081       .  S
C1909      C1910   1.408       .  A
C1909      C1914   1.407       .  A
C1910      C1911   1.408       .  A
C1910      H1923   1.083       .  S
C1911      C1912   1.407       .  A
C1911      H1924   1.083       .  S
C1912      C1913   1.406       .  A
C1912      C1915   1.493       .  S
C1913      C1914   1.392       .  A
C1913      H1925   1.082       .  S
C1914      H1926   1.083       .  S
C1915      C1916   1.349       .  D
C1915      H1927   1.085       .  S
C1916      C1917   1.487       .  S
C1916      H1928   1.086       .  S
C1917      C1918   1.401       .  A
C1917      C1922   1.410       .  A
C1918      C1919   1.391       .  A
C1918      H1929   1.084       .  S
C1919      C1920   1.402       .  A
C1919      H1930   1.084       .  S
C1920      C1921   1.407       .  A
C1921      C1922   1.410       .  A
C1921      H1931   1.083       .  S
C1922      H1932   1.082       .  S
C1933      C1934   1.406       .  A
C1933      C1938   1.408       .  A
C1934      C1935   1.394       .  A
C1934      H1947   1.083       .  S
C1935      C1936   1.402       .  A
C1935      H1948   1.084       .  S
C1936      C1937   1.409       .  A
C1936      C1939   1.487       .  S
C1937      C1938   1.405       .  A
C1937      H1949   1.082       .  S
C1938      H1950   1.083       .  S
C1939      C1940   1.348       .  D
C1939      H1951   1.087       .  S
C1940      C1941   1.489       .  S
C1940      H1952   1.085       .  S
C1941      C1942   1.405       .  A
C1941      C1946   1.405       .  A
C1942      C1943   1.405       .  A
C1942      H1953   1.083       .  S
C1943      C1944   1.407       .  A
C1943      H1954   1.083       .  S
C1944      C1945   1.407       .  A
C1945      C1946   1.393       .  A
C1945      H1955   1.083       .  S
C1946      H1956   1.083       .  S
C1957      C1958   1.407       .  A
C1957      C1962   1.407       .  A
C1958      C1959   1.403       .  A
C1958      H1971   1.083       .  S
C1959      C1960   1.405       .  A
C1959      H1972   1.083       .  S
C1960      C1961   1.409       .  A
C1960      C1963   1.494       .  S
C1961      C1962   1.399       .  A
C1961      H1973   1.082       .  S
C1962      H1974   1.083       .  S
C1963      C1964   1.348       .  D
C1963      H1975   1.085       .  S
C1964      C1965   1.489       .  S
C1964      H1976   1.085       .  S
C1965      C1966   1.400       .  A
C1965      C1970   1.411       .  A
C1966      C1967   1.391       .  A
C1966      H1977   1.084       .  S
C1967      C1968   1.407       .  A
C1967      H1978   1.083       .  S
C1968      C1969   1.407       .  A
C1969      C1970   1.409       .  A
C1969      H1979   1.083       .  S
C1970      H1980   1.082       .  S
C1981      C1982   1.405       .  A
C1981      C1986   1.407       .  A
C1982      C1983   1.397       .  A
C1982      H1995   1.083       .  S
C1983      C1984   1.403       .  A
C1983      H1996   1.083       .  S
C1984      C1985   1.407       .  A
C1984      C1987   1.484       .  S
C1985      C1986   1.399       .  A
C1985      H1997   1.082       .  S
C1986      H1998   1.083       .  S
C1987      C1988   1.348       .  D
C1987      H1999   1.083       .  S
C1988      C1989   1.488       .  S
C1988      H2000   1.085       .  S
C1989      C1990   1.404       .  A
C1989      C1994   1.408       .  A
C1990      C1991   1.398       .  A
C1990      H2001   1.083       .  S
C1991      C1992   1.405       .  A
C1991      H2002   1.083       .  S
C1992      C1993   1.406       .  A
C1993      C1994   1.397       .  A
C1993      H2003   1.083       .  S
C1994      H2004   1.080       .  S
C2005      C2006   1.406       .  A
C2005      C2010   1.405   1_554  A
C2006      C2007   1.401       .  A
C2006      H2019   1.083       .  S
C2007      C2008   1.405   1_554  A
C2007      H2020   1.084       .  S
C2008      C2009   1.410       .  A
C2008      C2011   1.494       .  S
C2009      C2010   1.399       .  A
C2009      H2021   1.079       .  S
C2010      H2022   1.083       .  S
C2011      C2012   1.348       .  D
C2011      H2023   1.086       .  S
C2012      C2013   1.485       .  S
C2012      H2024   1.083       .  S
C2013      C2014   1.401       .  A
C2013      C2018   1.410       .  A
C2014      C2015   1.394       .  A
C2014      H2025   1.084       .  S
C2015      C2016   1.404       .  A
C2015      H2026   1.084       .  S
C2016      C2017   1.404       .  A
C2017      C2018   1.406       .  A
C2017      H2027   1.083       .  S
C2018      H2028   1.082       .  S
C2029      C2030   1.408       .  A
C2029      C2034   1.407       .  A
C2030      C2031   1.400       .  A
C2030      H2043   1.083       .  S
C2031      C2032   1.404       .  A
C2031      H2044   1.083       .  S
C2032      C2033   1.410       .  A
C2032      C2035   1.495       .  S
C2033      C2034   1.403       .  A
C2033      H2045   1.081       .  S
C2034      H2046   1.083       .  S
C2035      C2036   1.349       .  D
C2035      H2047   1.085       .  S
C2036      C2037   1.493       .  S
C2036      H2048   1.085       .  S
C2037      C2038   1.403       .  A
C2037      C2042   1.410       .  A
C2038      C2039   1.398       .  A
C2038      H2049   1.083       .  S
C2039      C2040   1.407       .  A
C2039      H2050   1.083       .  S
C2040      C2041   1.408       .  A
C2041      C2042   1.405       .  A
C2041      H2051   1.083       .  S
C2042      H2052   1.081       .  S
C2053      C2054   1.406       .  A
C2053      C2058   1.405       .  A
C2054      C2055   1.398       .  A
C2054      H2067   1.083       .  S
C2055      C2056   1.403       .  A
C2055      H2068   1.083       .  S
C2056      C2057   1.408       .  A
C2056      C2059   1.488       .  S
C2057      C2058   1.399       .  A
C2057      H2069   1.082       .  S
C2058      H2070   1.083       .  S
C2059      C2060   1.349       .  D
C2059      H2071   1.084       .  S
C2060      C2061   1.491       .  S
C2060      H2072   1.086       .  S
C2061      C2062   1.405       .  A
C2061      C2066   1.408       .  A
C2062      C2063   1.400       .  A
C2062      H2073   1.083       .  S
C2063      C2064   1.405       .  A
C2063      H2074   1.083       .  S
C2064      C2065   1.407       .  A
C2065      C2066   1.399       .  A
C2065      H2075   1.083       .  S
C2066      H2076   1.080       .  S
C2077      C2078   1.407       .  A
C2077      C2082   1.404       .  A
C2078      C2079   1.395       .  A
C2078      H2091   1.083       .  S
C2079      C2080   1.402       .  A
C2079      H2092   1.083       .  S
C2080      C2081   1.411       .  A
C2080      C2083   1.490       .  S
C2081      C2082   1.402       .  A
C2081      H2093   1.080       .  S
C2082      H2094   1.083       .  S
C2083      C2084   1.347       .  D
C2083      H2095   1.086       .  S
C2084      C2085   1.486       .  S
C2084      H2096   1.084       .  S
C2085      C2086   1.401       .  A
C2085      C2090   1.409       .  A
C2086      C2087   1.396       .  A
C2086      H2097   1.083       .  S
C2087      C2088   1.407       .  A
C2087      H2098   1.083       .  S
C2088      C2089   1.406       .  A
C2089      C2090   1.402       .  A
C2089      H2099   1.083       .  S
C2090      H2100   1.082       .  S
C2101      C2102   1.404       .  A
C2101      C2106   1.406       .  A
C2102      C2103   1.392       .  A
C2102      H2115   1.084       .  S
C2103      C2104   1.401       .  A
C2103      H2116   1.084       .  S
C2104      C2105   1.411       .  A
C2104      C2107   1.488       .  S
C2105      C2106   1.409       .  A
C2105      H2117   1.082       .  S
C2106      H2118   1.083       .  S
C2107      C2108   1.347       .  D
C2107      H2119   1.087       .  S
C2108      C2109   1.491       .  S
C2108      H2120   1.085       .  S
C2109      C2110   1.405       .  A
C2109      C2114   1.406       .  A
C2110      C2111   1.405       .  A
C2110      H2121   1.083       .  S
C2111      C2112   1.409       .  A
C2111      H2122   1.083       .  S
C2112      C2113   1.407       .  A
C2113      C2114   1.396       .  A
C2113      H2123   1.083       .  S
C2114      H2124   1.083       .  S
C2125      C2126   1.406       .  A
C2125      C2130   1.406       .  A
C2126      C2127   1.401       .  A
C2126      H2139   1.083       .  S
C2127      C2128   1.405       .  A
C2127      H2140   1.083       .  S
C2128      C2129   1.409       .  A
C2128      C2131   1.493       .  S
C2129      C2130   1.398       .  A
C2129      H2141   1.080       .  S
C2130      H2142   1.083       .  S
C2131      C2132   1.348       .  D
C2131      H2143   1.086       .  S
C2132      C2133   1.486       .  S
C2132      H2144   1.084       .  S
C2133      C2134   1.401       .  A
C2133      C2138   1.411       .  A
C2134      C2135   1.394       .  A
C2134      H2145   1.084       .  S
C2135      C2136   1.404       .  A
C2135      H2146   1.084       .  S
C2136      C2137   1.404       .  A
C2137      C2138   1.406       .  A
C2137      H2147   1.083       .  S
C2138      H2148   1.082       .  S
C2149      C2150   1.406       .  A
C2149      C2154   1.407       .  A
C2150      C2151   1.400       .  A
C2150      H2163   1.083       .  S
C2151      C2152   1.403       .  A
C2151      H2164   1.083       .  S
C2152      C2153   1.407       .  A
C2152      C2155   1.488       .  S
C2153      C2154   1.401       .  A
C2153      H2165   1.082       .  S
C2154      H2166   1.083       .  S
C2155      C2156   1.346       .  D
C2155      H2167   1.087       .  S
C2156      C2157   1.485       .  S
C2156      H2168   1.086       .  S
C2157      C2158   1.402       .  A
C2157      C2162   1.408       .  A
C2158      C2159   1.397       .  A
C2158      H2169   1.083       .  S
C2159      C2160   1.405       .  A
C2159      H2170   1.083       .  S
C2160      C2161   1.406       .  A
C2161      C2162   1.403       .  A
C2161      H2171   1.083       .  S
C2162      H2172   1.083       .  S
C2173      C2174   1.408   1_556  A
C2173      C2178   1.407   1_556  A
C2174      C2175   1.407       .  A
C2174      H2187   1.083   1_554  S
C2175      C2176   1.406       .  A
C2175      H2188   1.083       .  S
C2176      C2177   1.406       .  A
C2176      C2179   1.493       .  S
C2177      C2178   1.395       .  A
C2177      H2189   1.083       .  S
C2178      H2190   1.083       .  S
C2179      C2180   1.349       .  D
C2179      H2191   1.085       .  S
C2180      C2181   1.490       .  S
C2180      H2192   1.087       .  S
C2181      C2182   1.401       .  A
C2181      C2186   1.411       .  A
C2182      C2183   1.392       .  A
C2182      H2193   1.084       .  S
C2183      C2184   1.406       .  A
C2183      H2194   1.083       .  S
C2184      C2185   1.408       .  A
C2185      C2186   1.410       .  A
C2185      H2195   1.083       .  S
C2186      H2196   1.082       .  S
C2197      C2198   1.406       .  A
C2197      C2202   1.406       .  A
C2198      C2199   1.402       .  A
C2198      H2211   1.083       .  S
C2199      C2200   1.405       .  A
C2199      H2212   1.083       .  S
C2200      C2201   1.409       .  A
C2200      C2203   1.493       .  S
C2201      C2202   1.398       .  A
C2201      H2213   1.081       .  S
C2202      H2214   1.083       .  S
C2203      C2204   1.348       .  D
C2203      H2215   1.085       .  S
C2204      C2205   1.488       .  S
C2204      H2216   1.084       .  S
C2205      C2206   1.401       .  A
C2205      C2210   1.411       .  A
C2206      C2207   1.392       .  A
C2206      H2217   1.084       .  S
C2207      C2208   1.405       .  A
C2207      H2218   1.083       .  S
C2208      C2209   1.406       .  A
C2209      C2210   1.407       .  A
C2209      H2219   1.083       .  S
C2210      H2220   1.082       .  S
C2221      C2222   1.405       .  A
C2221      C2226   1.406       .  A
C2222      C2223   1.395       .  A
C2222      H2235   1.083       .  S
C2223      C2224   1.402       .  A
C2223      H2236   1.083       .  S
C2224      C2225   1.408       .  A
C2224      C2227   1.484       .  S
C2225      C2226   1.400       .  A
C2225      H2237   1.082       .  S
C2226      H2238   1.083       .  S
C2227      C2228   1.348       .  D
C2227      H2239   1.083       .  S
C2228      C2229   1.489       .  S
C2228      H2240   1.085       .  S
C2229      C2230   1.406       .  A
C2229      C2234   1.408       .  A
C2230      C2231   1.400       .  A
C2230      H2241   1.083       .  S
C2231      C2232   1.405       .  A
C2231      H2242   1.083       .  S
C2232      C2233   1.404       .  A
C2233      C2234   1.393       .  A
C2233      H2243   1.083       .  S
C2234      H2244   1.080       .  S
C2245      C2246   1.406       .  A
C2245      C2250   1.405       .  A
C2246      C2247   1.399       .  A
C2246      H2259   1.083       .  S
C2247      C2248   1.402       .  A
C2247      H2260   1.083       .  S
C2248      C2249   1.407       .  A
C2248      C2251   1.485       .  S
C2249      C2250   1.401       .  A
C2249      H2261   1.083       .  S
C2250      H2262   1.083       .  S
C2251      C2252   1.346       .  D
C2251      H2263   1.086       .  S
C2252      C2253   1.486       .  S
C2252      H2264   1.087       .  S
C2253      C2254   1.403       .  A
C2253      C2258   1.407       .  A
C2254      C2255   1.399       .  A
C2254      H2265   1.083       .  S
C2255      C2256   1.406       .  A
C2255      H2266   1.083       .  S
C2256      C2257   1.406       .  A
C2257      C2258   1.400       .  A
C2257      H2267   1.083       .  S
C2258      H2268   1.082       .  S
C2269      C2270   1.406       .  A
C2269      C2274   1.407       .  A
C2270      C2271   1.396       .  A
C2270      H2283   1.083       .  S
C2271      C2272   1.403       .  A
C2271      H2284   1.084       .  S
C2272      C2273   1.409       .  A
C2272      C2275   1.489       .  S
C2273      C2274   1.404       .  A
C2273      H2285   1.081       .  S
C2274      H2286   1.083       .  S
C2275      C2276   1.349       .  D
C2275      H2287   1.087       .  S
C2276      C2277   1.490       .  S
C2276      H2288   1.085       .  S
C2277      C2278   1.407       .  A
C2277      C2282   1.405       .  A
C2278      C2279   1.407       .  A
C2278      H2289   1.083       .  S
C2279      C2280   1.407       .  A
C2279      H2290   1.083       .  S
C2280      C2281   1.406       .  A
C2281      C2282   1.393       .  A
C2281      H2291   1.083       .  S
C2282      H2292   1.082       .  S
C2293      C2294   1.406       .  A
C2293      C2298   1.407       .  A
C2294      C2295   1.392       .  A
C2294      H2307   1.083       .  S
C2295      C2296   1.401       .  A
C2295      H2308   1.084       .  S
C2296      C2297   1.409       .  A
C2296      C2299   1.485       .  S
C2297      C2298   1.405       .  A
C2297      H2309   1.081       .  S
C2298      H2310   1.083       .  S
C2299      C2300   1.348       .  D
C2299      H2311   1.086       .  S
C2300      C2301   1.489       .  S
C2300      H2312   1.085       .  S
C2301      C2302   1.406       .  A
C2301      C2306   1.405       .  A
C2302      C2303   1.405       .  A
C2302      H2313   1.083       .  S
C2303      C2304   1.406       .  A
C2303      H2314   1.083       .  S
C2304      C2305   1.407       .  A
C2305      C2306   1.391       .  A
C2305      H2315   1.083       .  S
C2306      H2316   1.082       .  S
C2317      C2318   1.406       .  A
C2317      C2322   1.405       .  A
C2318      C2319   1.397       .  A
C2318      H2331   1.083       .  S
C2319      C2320   1.402       .  A
C2319      H2332   1.083       .  S
C2320      C2321   1.407       .  A
C2320      C2323   1.482       .  S
C2321      C2322   1.396       .  A
C2321      H2333   1.082       .  S
C2322      H2334   1.083       .  S
C2323      C2324   1.346   1_655  D
C2323      H2335   1.084       .  S
C2324      C2325   1.484       .  S
C2324      H2336   1.086       .  S
C2325      C2326   1.403       .  A
C2325      C2330   1.407       .  A
C2326      C2327   1.396       .  A
C2326      H2337   1.083       .  S
C2327      C2328   1.405       .  A
C2327      H2338   1.083       .  S
C2328      C2329   1.406       .  A
C2329      C2330   1.396       .  A
C2329      H2339   1.083       .  S
C2330      H2340   1.081       .  S
C2341      C2342   1.406       .  A
C2341      C2346   1.406       .  A
C2342      C2343   1.405       .  A
C2342      H2355   1.083       .  S
C2343      C2344   1.406       .  A
C2343      H2356   1.083       .  S
C2344      C2345   1.405       .  A
C2344      C2347   1.487       .  S
C2345      C2346   1.395       .  A
C2345      H2357   1.083   1_554  S
C2346      H2358   1.083       .  S
C2347      C2348   1.347   1_554  D
C2347      H2359   1.086       .  S
C2348      C2349   1.485       .  S
C2348      H2360   1.087       .  S
C2349      C2350   1.402       .  A
C2349      C2354   1.407   1_556  A
C2350      C2351   1.398       .  A
C2350      H2361   1.083       .  S
C2351      C2352   1.406       .  A
C2351      H2362   1.083       .  S
C2352      C2353   1.407       .  A
C2353      C2354   1.402   1_556  A
C2353      H2363   1.083   1_556  S
C2354      H2364   1.082       .  S
C2365      C2366   1.403       .  A
C2365      C2370   1.404       .  A
C2366      C2367   1.395       .  A
C2366      H2379   1.084   1_556  S
C2367      C2368   1.401       .  A
C2367      H2380   1.083   1_556  S
C2368      C2369   1.409       .  A
C2368      C2371   1.485       .  S
C2369      C2370   1.404       .  A
C2369      H2381   1.083       .  S
C2370      H2382   1.083       .  S
C2371      C2372   1.346       .  D
C2371      H2383   1.086   1_556  S
C2372      C2373   1.488       .  S
C2372      H2384   1.086       .  S
C2373      C2374   1.402       .  A
C2373      C2378   1.408   1_556  A
C2374      C2375   1.398       .  A
C2374      H2385   1.083       .  S
C2375      C2376   1.407   1_556  A
C2375      H2386   1.083       .  S
C2376      C2377   1.407       .  A
C2377      C2378   1.401       .  A
C2377      H2387   1.083       .  S
C2378      H2388   1.082       .  S
C2389      C2390   1.407       .  A
C2389      C2394   1.405       .  A
C2390      C2391   1.396       .  A
C2390      H2403   1.083       .  S
C2391      C2392   1.402       .  A
C2391      H2404   1.083       .  S
C2392      C2393   1.410       .  A
C2392      C2395   1.489       .  S
C2393      C2394   1.402       .  A
C2393      H2405   1.081       .  S
C2394      H2406   1.083       .  S
C2395      C2396   1.347       .  D
C2395      H2407   1.085       .  S
C2396      C2397   1.488       .  S
C2396      H2408   1.084       .  S
C2397      C2398   1.402       .  A
C2397      C2402   1.409       .  A
C2398      C2399   1.397       .  A
C2398      H2409   1.083       .  S
C2399      C2400   1.407       .  A
C2399      H2410   1.083       .  S
C2400      C2401   1.406       .  A
C2401      C2402   1.401       .  A
C2401      H2411   1.083       .  S
C2402      H2412   1.081       .  S
C2413      C2414   1.408   1_655  A
C2413      C2418   1.407       .  A
C2414      C2415   1.399       .  A
C2414      H2427   1.083       .  S
C2415      C2416   1.403       .  A
C2415      H2428   1.083       .  S
C2416      C2417   1.409   1_455  A
C2416      C2419   1.490       .  S
C2417      C2418   1.403       .  A
C2417      H2429   1.082       .  S
C2418      H2430   1.083       .  S
C2419      C2420   1.347       .  D
C2419      H2431   1.086       .  S
C2420      C2421   1.490       .  S
C2420      H2432   1.086       .  S
C2421      C2422   1.402       .  A
C2421      C2426   1.409       .  A
C2422      C2423   1.398       .  A
C2422      H2433   1.083       .  S
C2423      C2424   1.408       .  A
C2423      H2434   1.083       .  S
C2424      C2425   1.407       .  A
C2425      C2426   1.404       .  A
C2425      H2435   1.083       .  S
C2426      H2436   1.082       .  S
C2437      C2438   1.408       .  A
C2437      C2442   1.407       .  A
C2438      C2439   1.409       .  A
C2438      H2451   1.083       .  S
C2439      C2440   1.406       .  A
C2439      H2452   1.083       .  S
C2440      C2441   1.404       .  A
C2440      C2443   1.490       .  S
C2441      C2442   1.391       .  A
C2441      H2453   1.083       .  S
C2442      H2454   1.083       .  S
C2443      C2444   1.348       .  D
C2443      H2455   1.085       .  S
C2444      C2445   1.487       .  S
C2444      H2456   1.087       .  S
C2445      C2446   1.401       .  A
C2445      C2450   1.410       .  A
C2446      C2447   1.390       .  A
C2446      H2457   1.084       .  S
C2447      C2448   1.405       .  A
C2447      H2458   1.083       .  S
C2448      C2449   1.408       .  A
C2449      C2450   1.410       .  A
C2449      H2459   1.083       .  S
C2450      H2460   1.082       .  S
C2461      C2462   1.407       .  A
C2461      C2466   1.407       .  A
C2462      C2463   1.393       .  A
C2462      H2475   1.083       .  S
C2463      C2464   1.400       .  A
C2463      H2476   1.084       .  S
C2464      C2465   1.410       .  A
C2464      C2467   1.488       .  S
C2465      C2466   1.408       .  A
C2465      H2477   1.082       .  S
C2466      H2478   1.083       .  S
C2467      C2468   1.348       .  D
C2467      H2479   1.086       .  S
C2468      C2469   1.492       .  S
C2468      H2480   1.086       .  S
C2469      C2470   1.404       .  A
C2469      C2474   1.408       .  A
C2470      C2471   1.402       .  A
C2470      H2481   1.083       .  S
C2471      C2472   1.408       .  A
C2471      H2482   1.083       .  S
C2472      C2473   1.406       .  A
C2473      C2474   1.399       .  A
C2473      H2483   1.083       .  S
C2474      H2484   1.082       .  S
C2485      C2486   1.406       .  A
C2485      C2490   1.406       .  A
C2486      C2487   1.402       .  A
C2486      H2499   1.083       .  S
C2487      C2488   1.405       .  A
C2487      H2500   1.083       .  S
C2488      C2489   1.407       .  A
C2488      C2491   1.492       .  S
C2489      C2490   1.397       .  A
C2489      H2501   1.082       .  S
C2490      H2502   1.083       .  S
C2491      C2492   1.351       .  D
C2491      H2503   1.083       .  S
C2492      C2493   1.492       .  S
C2492      H2504   1.085       .  S
C2493      C2494   1.405       .  A
C2493      C2498   1.409       .  A
C2494      C2495   1.397       .  A
C2494      H2505   1.083       .  S
C2495      C2496   1.404       .  A
C2495      H2506   1.083       .  S
C2496      C2497   1.408       .  A
C2497      C2498   1.402       .  A
C2497      H2507   1.083       .  S
C2498      H2508   1.080       .  S
C2509      C2510   1.405       .  A
C2509      C2514   1.405       .  A
C2510      C2511   1.393       .  A
C2510      H2523   1.083       .  S
C2511      C2512   1.399       .  A
C2511      H2524   1.084       .  S
C2512      C2513   1.407       .  A
C2512      C2515   1.478       .  S
C2513      C2514   1.402       .  A
C2513      H2525   1.083       .  S
C2514      H2526   1.083       .  S
C2515      C2516   1.342       .  D
C2515      H2527   1.087       .  S
C2516      C2517   1.480       .  S
C2516      H2528   1.087       .  S
C2517      C2518   1.401       .  A
C2517      C2522   1.406       .  A
C2518      C2519   1.398       .  A
C2518      H2529   1.083       .  S
C2519      C2520   1.408       .  A
C2519      H2530   1.083   1_556  S
C2520      C2521   1.405       .  A
C2521      C2522   1.398       .  A
C2521      H2531   1.083       .  S
C2522      H2532   1.083       .  S
C2533      C2534   1.406       .  A
C2533      C2538   1.408       .  A
C2534      C2535   1.390       .  A
C2534      H2547   1.083       .  S
C2535      C2536   1.401       .  A
C2535      H2548   1.084       .  S
C2536      C2537   1.413       .  A
C2536      C2539   1.494       .  S
C2537      C2538   1.414       .  A
C2537      H2549   1.081       .  S
C2538      H2550   1.083       .  S
C2539      C2540   1.349       .  D
C2539      H2551   1.087       .  S
C2540      C2541   1.495   1_455  S
C2540      H2552   1.084   1_455  S
C2541      C2542   1.406       .  A
C2541      C2546   1.407       .  A
C2542      C2543   1.408       .  A
C2542      H2553   1.083       .  S
C2543      C2544   1.409       .  A
C2543      H2554   1.083       .  S
C2544      C2545   1.407       .  A
C2545      C2546   1.396       .  A
C2545      H2555   1.083       .  S
C2546      H2556   1.083       .  S
C2557      C2558   1.408       .  A
C2557      C2562   1.408       .  A
C2558      C2559   1.392       .  A
C2558      H2571   1.083       .  S
C2559      C2560   1.400       .  A
C2559      H2572   1.084       .  S
C2560      C2561   1.412       .  A
C2560      C2563   1.491       .  S
C2561      C2562   1.411       .  A
C2561      H2573   1.082       .  S
C2562      H2574   1.083       .  S
C2563      C2564   1.348       .  D
C2563      H2575   1.085       .  S
C2564      C2565   1.495       .  S
C2564      H2576   1.085       .  S
C2565      C2566   1.405       .  A
C2565      C2570   1.409       .  A
C2566      C2567   1.403       .  A
C2566      H2577   1.083       .  S
C2567      C2568   1.408       .  A
C2567      H2578   1.083       .  S
C2568      C2569   1.407       .  A
C2569      C2570   1.400       .  A
C2569      H2579   1.083       .  S
C2570      H2580   1.082       .  S
C2581      C2582   1.407   1_455  A
C2581      C2586   1.409   1_455  A
C2582      C2583   1.395       .  A
C2582      H2595   1.083       .  S
C2583      C2584   1.403       .  A
C2583      H2596   1.084       .  S
C2584      C2585   1.410       .  A
C2584      C2587   1.493       .  S
C2585      C2586   1.409       .  A
C2585      H2597   1.081       .  S
C2586      H2598   1.083       .  S
C2587      C2588   1.351       .  D
C2587      H2599   1.087       .  S
C2588      C2589   1.495       .  S
C2588      H2600   1.085       .  S
C2589      C2590   1.408       .  A
C2589      C2594   1.405       .  A
C2590      C2591   1.409       .  A
C2590      H2601   1.083       .  S
C2591      C2592   1.407       .  A
C2591      H2602   1.083       .  S
C2592      C2593   1.408       .  A
C2593      C2594   1.394       .  A
C2593      H2603   1.083       .  S
C2594      H2604   1.082       .  S
C2605      C2606   1.405       .  A
C2605      C2610   1.408       .  A
C2606      C2607   1.402       .  A
C2606      H2619   1.083       .  S
C2607      C2608   1.406       .  A
C2607      H2620   1.083       .  S
C2608      C2609   1.407       .  A
C2608      C2611   1.492       .  S
C2609      C2610   1.398       .  A
C2609      H2621   1.081       .  S
C2610      H2622   1.083       .  S
C2611      C2612   1.352       .  D
C2611      H2623   1.083       .  S
C2612      C2613   1.493       .  S
C2612      H2624   1.084       .  S
C2613      C2614   1.406       .  A
C2613      C2618   1.407       .  A
C2614      C2615   1.401       .  A
C2614      H2625   1.083       .  S
C2615      C2616   1.405       .  A
C2615      H2626   1.083       .  S
C2616      C2617   1.408       .  A
C2617      C2618   1.399       .  A
C2617      H2627   1.083       .  S
C2618      H2628   1.081       .  S
C2629      C2630   1.406   1_455  A
C2629      C2634   1.406       .  A
C2630      C2631   1.399       .  A
C2630      H2643   1.083       .  S
C2631      C2632   1.402       .  A
C2631      H2644   1.083       .  S
C2632      C2633   1.406   1_655  A
C2632      C2635   1.483       .  S
C2633      C2634   1.401       .  A
C2633      H2645   1.083       .  S
C2634      H2646   1.083       .  S
C2635      C2636   1.345       .  D
C2635      H2647   1.086       .  S
C2636      C2637   1.484       .  S
C2636      H2648   1.087       .  S
C2637      C2638   1.402       .  A
C2637      C2642   1.406       .  A
C2638      C2639   1.399       .  A
C2638      H2649   1.083       .  S
C2639      C2640   1.407       .  A
C2639      H2650   1.083       .  S
C2640      C2641   1.407       .  A
C2641      C2642   1.401       .  A
C2641      H2651   1.083       .  S
C2642      H2652   1.083       .  S
C2653      C2654   1.409       .  A
C2653      C2658   1.407       .  A
C2654      C2655   1.409       .  A
C2654      H2667   1.083       .  S
C2655      C2656   1.407       .  A
C2655      H2668   1.083       .  S
C2656      C2657   1.404       .  A
C2656      C2659   1.491       .  S
C2657      C2658   1.392       .  A
C2657      H2669   1.083       .  S
C2658      H2670   1.083       .  S
C2659      C2660   1.349       .  D
C2659      H2671   1.085       .  S
C2660      C2661   1.490       .  S
C2660      H2672   1.088       .  S
C2661      C2662   1.402       .  A
C2661      C2666   1.411       .  A
C2662      C2663   1.392       .  A
C2662      H2673   1.084       .  S
C2663      C2664   1.404   1_556  A
C2663      H2674   1.083       .  S
C2664      C2665   1.407       .  A
C2665      C2666   1.409   1_554  A
C2665      H2675   1.083       .  S
C2666      H2676   1.081       .  S
C2677      C2678   1.408       .  A
C2677      C2682   1.407       .  A
C2678      C2679   1.404       .  A
C2678      H2691   1.083       .  S
C2679      C2680   1.405       .  A
C2679      H2692   1.083       .  S
C2680      C2681   1.409       .  A
C2680      C2683   1.495       .  S
C2681      C2682   1.399       .  A
C2681      H2693   1.082       .  S
C2682      H2694   1.083       .  S
C2683      C2684   1.349       .  D
C2683      H2695   1.085       .  S
C2684      C2685   1.491       .  S
C2684      H2696   1.085       .  S
C2685      C2686   1.401       .  A
C2685      C2690   1.411       .  A
C2686      C2687   1.393       .  A
C2686      H2697   1.084       .  S
C2687      C2688   1.407       .  A
C2687      H2698   1.083       .  S
C2688      C2689   1.408       .  A
C2689      C2690   1.410       .  A
C2689      H2699   1.083       .  S
C2690      H2700   1.082       .  S
C2701      C2702   1.406       .  A
C2701      C2706   1.406       .  A
C2702      C2703   1.399       .  A
C2702      H2715   1.083       .  S
C2703      C2704   1.403       .  A
C2703      H2716   1.083       .  S
C2704      C2705   1.407       .  A
C2704      C2707   1.485       .  S
C2705      C2706   1.401       .  A
C2705      H2717   1.082       .  S
C2706      H2718   1.083       .  S
C2707      C2708   1.346   1_455  D
C2707      H2719   1.087       .  S
C2708      C2709   1.484       .  S
C2708      H2720   1.086   1_655  S
C2709      C2710   1.402       .  A
C2709      C2714   1.406       .  A
C2710      C2711   1.400       .  A
C2710      H2721   1.083       .  S
C2711      C2712   1.406       .  A
C2711      H2722   1.083       .  S
C2712      C2713   1.405       .  A
C2713      C2714   1.400       .  A
C2713      H2723   1.083       .  S
C2714      H2724   1.083       .  S
C2725      C2726   1.407       .  A
C2725      C2730   1.406       .  A
C2726      C2727   1.396       .  A
C2726      H2739   1.083       .  S
C2727      C2728   1.400       .  A
C2727      H2740   1.083       .  S
C2728      C2729   1.408       .  A
C2728      C2731   1.483       .  S
C2729      C2730   1.402       .  A
C2729      H2741   1.083       .  S
C2730      H2742   1.083       .  S
C2731      C2732   1.343       .  D
C2731      H2743   1.087       .  S
C2732      C2733   1.482       .  S
C2732      H2744   1.087       .  S
C2733      C2734   1.400       .  A
C2733      C2738   1.408       .  A
C2734      C2735   1.395       .  A
C2734      H2745   1.083       .  S
C2735      C2736   1.406       .  A
C2735      H2746   1.083       .  S
C2736      C2737   1.406       .  A
C2737      C2738   1.403       .  A
C2737      H2747   1.083       .  S
C2738      H2748   1.083       .  S
C2749      C2750   1.406       .  A
C2749      C2754   1.406       .  A
C2750      C2751   1.401       .  A
C2750      H2763   1.083       .  S
C2751      C2752   1.405       .  A
C2751      H2764   1.083       .  S
C2752      C2753   1.407       .  A
C2752      C2755   1.489       .  S
C2753      C2754   1.397       .  A
C2753      H2765   1.081       .  S
C2754      H2766   1.083       .  S
C2755      C2756   1.350       .  D
C2755      H2767   1.084       .  S
C2756      C2757   1.489       .  S
C2756      H2768   1.084       .  S
C2757      C2758   1.405       .  A
C2757      C2762   1.407       .  A
C2758      C2759   1.399       .  A
C2758      H2769   1.083       .  S
C2759      C2760   1.405       .  A
C2759      H2770   1.083       .  S
C2760      C2761   1.407       .  A
C2761      C2762   1.398       .  A
C2761      H2771   1.083       .  S
C2762      H2772   1.081       .  S
C2773      C2774   1.406       .  A
C2773      C2778   1.407       .  A
C2774      C2775   1.391       .  A
C2774      H2787   1.083       .  S
C2775      C2776   1.400       .  A
C2775      H2788   1.084       .  S
C2776      C2777   1.411       .  A
C2776      C2779   1.489       .  S
C2777      C2778   1.410       .  A
C2777      H2789   1.082       .  S
C2778      H2790   1.083       .  S
C2779      C2780   1.348       .  D
C2779      H2791   1.086       .  S
C2780      C2781   1.494       .  S
C2780      H2792   1.086       .  S
C2781      C2782   1.405       .  A
C2781      C2786   1.408       .  A
C2782      C2783   1.403       .  A
C2782      H2793   1.083       .  S
C2783      C2784   1.407       .  A
C2783      H2794   1.083       .  S
C2784      C2785   1.406       .  A
C2785      C2786   1.397       .  A
C2785      H2795   1.083       .  S
C2786      H2796   1.082       .  S
C2797      C2798   1.405       .  A
C2797      C2802   1.406       .  A
C2798      C2799   1.395       .  A
C2798      H2811   1.084       .  S
C2799      C2800   1.400       .  A
C2799      H2812   1.083       .  S
C2800      C2801   1.410       .  A
C2800      C2803   1.487       .  S
C2801      C2802   1.408       .  A
C2801      H2813   1.083       .  S
C2802      H2814   1.082       .  S
C2803      C2804   1.346       .  D
C2803      H2815   1.086       .  S
C2804      C2805   1.490       .  S
C2804      H2816   1.086       .  S
C2805      C2806   1.402       .  A
C2805      C2810   1.408       .  A
C2806      C2807   1.399       .  A
C2806      H2817   1.083       .  S
C2807      C2808   1.406       .  A
C2807      H2818   1.083       .  S
C2808      C2809   1.408       .  A
C2809      C2810   1.404       .  A
C2809      H2819   1.083       .  S
C2810      H2820   1.083       .  S
C2821      C2822   1.406       .  A
C2821      C2826   1.406       .  A
C2822      C2823   1.395       .  A
C2822      H2835   1.083       .  S
C2823      C2824   1.401       .  A
C2823      H2836   1.083       .  S
C2824      C2825   1.409       .  A
C2824      C2827   1.485       .  S
C2825      C2826   1.401       .  A
C2825      H2837   1.082       .  S
C2826      H2838   1.083       .  S
C2827      C2828   1.346       .  D
C2827      H2839   1.085       .  S
C2828      C2829   1.486       .  S
C2828      H2840   1.085       .  S
C2829      C2830   1.401       .  A
C2829      C2834   1.409       .  A
C2830      C2831   1.396       .  A
C2830      H2841   1.083       .  S
C2831      C2832   1.407       .  A
C2831      H2842   1.083       .  S
C2832      C2833   1.405       .  A
C2833      C2834   1.400       .  A
C2833      H2843   1.083       .  S
C2834      H2844   1.081       .  S
C2845      C2846   1.406       .  A
C2845      C2850   1.406       .  A
C2846      C2847   1.395   1_556  A
C2846      H2859   1.084   1_556  S
C2847      C2848   1.401   1_554  A
C2847      H2860   1.083       .  S
C2848      C2849   1.411       .  A
C2848      C2851   1.491       .  S
C2849      C2850   1.408       .  A
C2849      H2861   1.082       .  S
C2850      H2862   1.083       .  S
C2851      C2852   1.348       .  D
C2851      H2863   1.086   1_556  S
C2852      C2853   1.493       .  S
C2852      H2864   1.086       .  S
C2853      C2854   1.403       .  A
C2853      C2858   1.409   1_556  A
C2854      C2855   1.400       .  A
C2854      H2865   1.083       .  S
C2855      C2856   1.406   1_556  A
C2855      H2866   1.083       .  S
C2856      C2857   1.408       .  A
C2857      C2858   1.404       .  A
C2857      H2867   1.083       .  S
C2858      H2868   1.082       .  S
C2869      C2870   1.405       .  A
C2869      C2874   1.403       .  A
C2870      C2871   1.402       .  A
C2870      H2883   1.083       .  S
C2871      C2872   1.405       .  A
C2871      H2884   1.083       .  S
C2872      C2873   1.405       .  A
C2872      C2875   1.483       .  S
C2873      C2874   1.392       .  A
C2873      H2885   1.082   1_554  S
C2874      H2886   1.083       .  S
C2875      C2876   1.346   1_554  D
C2875      H2887   1.086       .  S
C2876      C2877   1.481       .  S
C2876      H2888   1.087       .  S
C2877      C2878   1.402       .  A
C2877      C2882   1.407   1_556  A
C2878      C2879   1.397       .  A
C2878      H2889   1.083       .  S
C2879      C2880   1.406       .  A
C2879      H2890   1.083       .  S
C2880      C2881   1.406       .  A
C2881      C2882   1.400   1_556  A
C2881      H2891   1.083   1_556  S
C2882      H2892   1.082       .  S
C2893      C2894   1.406       .  A
C2893      C2898   1.405       .  A
C2894      C2895   1.397       .  A
C2894      H2907   1.083       .  S
C2895      C2896   1.403       .  A
C2895      H2908   1.084       .  S
C2896      C2897   1.409       .  A
C2896      C2899   1.487       .  S
C2897      C2898   1.401       .  A
C2897      H2909   1.081       .  S
C2898      H2910   1.083       .  S
C2899      C2900   1.349       .  D
C2899      H2911   1.084       .  S
C2900      C2901   1.491       .  S
C2900      H2912   1.085       .  S
C2901      C2902   1.405       .  A
C2901      C2906   1.409       .  A
C2902      C2903   1.400       .  A
C2902      H2913   1.083       .  S
C2903      C2904   1.405       .  A
C2903      H2914   1.083       .  S
C2904      C2905   1.406       .  A
C2905      C2906   1.398       .  A
C2905      H2915   1.083       .  S
C2906      H2916   1.081       .  S
C2917      C2918   1.405       .  A
C2917      C2922   1.406       .  A
C2918      C2919   1.398       .  A
C2918      H2931   1.083       .  S
C2919      C2920   1.404       .  A
C2919      H2932   1.083       .  S
C2920      C2921   1.408       .  A
C2920      C2923   1.488       .  S
C2921      C2922   1.398       .  A
C2921      H2933   1.081       .  S
C2922      H2934   1.083       .  S
C2923      C2924   1.350       .  D
C2923      H2935   1.084       .  S
C2924      C2925   1.488       .  S
C2924      H2936   1.083       .  S
C2925      C2926   1.405       .  A
C2925      C2930   1.407       .  A
C2926      C2927   1.401       .  A
C2926      H2937   1.083       .  S
C2927      C2928   1.405       .  A
C2927      H2938   1.083       .  S
C2928      C2929   1.407       .  A
C2929      C2930   1.395       .  A
C2929      H2939   1.083       .  S
C2930      H2940   1.081       .  S
C2941      C2942   1.408       .  A
C2941      C2946   1.407       .  A
C2942      C2943   1.409       .  A
C2942      H2955   1.083       .  S
C2943      C2944   1.407       .  A
C2943      H2956   1.083       .  S
C2944      C2945   1.404       .  A
C2944      C2947   1.492       .  S
C2945      C2946   1.392       .  A
C2945      H2957   1.083       .  S
C2946      H2958   1.083       .  S
C2947      C2948   1.350       .  D
C2947      H2959   1.084       .  S
C2948      C2949   1.491       .  S
C2948      H2960   1.087       .  S
C2949      C2950   1.403       .  A
C2949      C2954   1.412       .  A
C2950      C2951   1.393       .  A
C2950      H2961   1.084       .  S
C2951      C2952   1.403       .  A
C2951      H2962   1.084       .  S
C2952      C2953   1.406       .  A
C2953      C2954   1.409       .  A
C2953      H2963   1.083       .  S
C2954      H2964   1.081       .  S
C2965      C2966   1.406       .  A
C2965      C2970   1.407       .  A
C2966      C2967   1.407       .  A
C2966      H2979   1.083       .  S
C2967      C2968   1.407       .  A
C2967      H2980   1.083       .  S
C2968      C2969   1.406       .  A
C2968      C2971   1.493       .  S
C2969      C2970   1.398       .  A
C2969      H2981   1.082       .  S
C2970      H2982   1.083       .  S
C2971      C2972   1.350       .  D
C2971      H2983   1.086       .  S
C2972      C2973   1.491       .  S
C2972      H2984   1.086       .  S
C2973      C2974   1.404       .  A
C2973      C2978   1.408       .  A
C2974      C2975   1.400       .  A
C2974      H2985   1.083       .  S
C2975      C2976   1.406       .  A
C2975      H2986   1.083       .  S
C2976      C2977   1.408       .  A
C2977      C2978   1.405       .  A
C2977      H2987   1.083       .  S
C2978      H2988   1.082       .  S
C2989      C2990   1.406       .  A
C2989      C2994   1.407       .  A
C2990      C2991   1.391       .  A
C2990      H3003   1.083       .  S
C2991      C2992   1.400       .  A
C2991      H3004   1.084       .  S
C2992      C2993   1.411       .  A
C2992      C2995   1.488       .  S
C2993      C2994   1.408       .  A
C2993      H3005   1.082       .  S
C2994      H3006   1.083       .  S
C2995      C2996   1.348       .  D
C2995      H3007   1.085       .  S
C2996      C2997   1.493       .  S
C2996      H3008   1.085       .  S
C2997      C2998   1.404       .  A
C2997      C3002   1.408       .  A
C2998      C2999   1.403       .  A
C2998      H3009   1.083       .  S
C2999      C3000   1.407       .  A
C2999      H3010   1.083       .  S
C3000      C3001   1.406       .  A
C3001      C3002   1.398       .  A
C3001      H3011   1.083       .  S
C3002      H3012   1.082       .  S
C3013      C3014   1.405       .  A
C3013      C3018   1.406       .  A
C3014      C3015   1.398       .  A
C3014      H3027   1.083       .  S
C3015      C3016   1.404       .  A
C3015      H3028   1.083       .  S
C3016      C3017   1.408       .  A
C3016      C3019   1.488       .  S
C3017      C3018   1.399       .  A
C3017      H3029   1.081       .  S
C3018      H3030   1.083       .  S
C3019      C3020   1.349       .  D
C3019      H3031   1.083       .  S
C3020      C3021   1.490   1_455  S
C3020      H3032   1.084       .  S
C3021      C3022   1.405       .  A
C3021      C3026   1.408       .  A
C3022      C3023   1.399       .  A
C3022      H3033   1.083       .  S
C3023      C3024   1.405       .  A
C3023      H3034   1.083       .  S
C3024      C3025   1.406       .  A
C3025      C3026   1.398       .  A
C3025      H3035   1.083       .  S
C3026      H3036   1.081       .  S
C3037      C3038   1.407       .  A
C3037      C3042   1.407       .  A
C3038      C3039   1.404       .  A
C3038      H3051   1.083       .  S
C3039      C3040   1.405       .  A
C3039      H3052   1.083       .  S
C3040      C3041   1.407       .  A
C3040      C3043   1.494       .  S
C3041      C3042   1.399       .  A
C3041      H3053   1.082       .  S
C3042      H3054   1.083       .  S
C3043      C3044   1.349       .  D
C3043      H3055   1.086       .  S
C3044      C3045   1.490       .  S
C3044      H3056   1.086       .  S
C3045      C3046   1.401       .  A
C3045      C3050   1.410       .  A
C3046      C3047   1.393       .  A
C3046      H3057   1.084       .  S
C3047      C3048   1.407       .  A
C3047      H3058   1.083       .  S
C3048      C3049   1.408       .  A
C3049      C3050   1.410       .  A
C3049      H3059   1.083       .  S
C3050      H3060   1.082       .  S
C3061      C3062   1.407       .  A
C3061      C3066   1.406       .  A
C3062      C3063   1.403       .  A
C3062      H3075   1.083       .  S
C3063      C3064   1.405       .  A
C3063      H3076   1.083       .  S
C3064      C3065   1.410       .  A
C3064      C3067   1.497       .  S
C3065      C3066   1.400       .  A
C3065      H3077   1.081       .  S
C3066      H3078   1.083       .  S
C3067      C3068   1.348       .  D
C3067      H3079   1.086       .  S
C3068      C3069   1.490       .  S
C3068      H3080   1.084       .  S
C3069      C3070   1.400       .  A
C3069      C3074   1.412       .  A
C3070      C3071   1.391       .  A
C3070      H3081   1.084       .  S
C3071      C3072   1.406       .  A
C3071      H3082   1.083       .  S
C3072      C3073   1.407       .  A
C3073      C3074   1.411       .  A
C3073      H3083   1.083       .  S
C3074      H3084   1.082       .  S
C3085      C3086   1.406       .  A
C3085      C3090   1.408       .  A
C3086      C3087   1.400       .  A
C3086      H3099   1.083       .  S
C3087      C3088   1.404       .  A
C3087      H3100   1.083       .  S
C3088      C3089   1.407       .  A
C3088      C3091   1.489       .  S
C3089      C3090   1.403       .  A
C3089      H3101   1.082       .  S
C3090      H3102   1.083       .  S
C3091      C3092   1.348       .  D
C3091      H3103   1.086   1_655  S
C3092      C3093   1.489       .  S
C3092      H3104   1.086       .  S
C3093      C3094   1.404       .  A
C3093      C3098   1.407   1_655  A
C3094      C3095   1.402       .  A
C3094      H3105   1.083       .  S
C3095      C3096   1.406   1_655  A
C3095      H3106   1.083       .  S
C3096      C3097   1.406       .  A
C3097      C3098   1.401       .  A
C3097      H3107   1.083       .  S
C3098      H3108   1.083       .  S
C3109      C3110   1.406       .  A
C3109      C3114   1.407       .  A
C3110      C3111   1.400       .  A
C3110      H3123   1.083       .  S
C3111      C3112   1.402       .  A
C3111      H3124   1.083       .  S
C3112      C3113   1.404       .  A
C3112      C3115   1.480       .  S
C3113      C3114   1.397       .  A
C3113      H3125   1.083       .  S
C3114      H3126   1.083       .  S
C3115      C3116   1.345   1_655  D
C3115      H3127   1.087       .  S
C3116      C3117   1.479       .  S
C3116      H3128   1.087       .  S
C3117      C3118   1.403       .  A
C3117      C3122   1.404       .  A
C3118      C3119   1.399       .  A
C3118      H3129   1.083       .  S
C3119      C3120   1.404       .  A
C3119      H3130   1.083       .  S
C3120      C3121   1.406       .  A
C3121      C3122   1.397       .  A
C3121      H3131   1.083       .  S
C3122      H3132   1.083       .  S
C3133      C3134   1.406       .  A
C3133      C3138   1.406       .  A
C3134      C3135   1.396       .  A
C3134      H3147   1.083       .  S
C3135      C3136   1.401       .  A
C3135      H3148   1.083       .  S
C3136      C3137   1.408       .  A
C3136      C3139   1.484       .  S
C3137      C3138   1.400       .  A
C3137      H3149   1.082   1_554  S
C3138      H3150   1.083       .  S
C3139      C3140   1.347   1_554  D
C3139      H3151   1.083       .  S
C3140      C3141   1.489   1_455  S
C3140      H3152   1.085       .  S
C3141      C3142   1.403       .  A
C3141      C3146   1.410       .  A
C3142      C3143   1.397       .  A
C3142      H3153   1.083       .  S
C3143      C3144   1.406       .  A
C3143      H3154   1.083       .  S
C3144      C3145   1.405       .  A
C3145      C3146   1.399       .  A
C3145      H3155   1.083       .  S
C3146      H3156   1.080   1_556  S
C3157      C3158   1.405       .  A
C3157      C3162   1.408       .  A
C3158      C3159   1.392       .  A
C3158      H3171   1.083       .  S
C3159      C3160   1.402       .  A
C3159      H3172   1.084       .  S
C3160      C3161   1.411       .  A
C3160      C3163   1.491   1_655  S
C3161      C3162   1.409       .  A
C3161      H3173   1.081   1_655  S
C3162      H3174   1.083       .  S
C3163      C3164   1.349       .  D
C3163      H3175   1.087       .  S
C3164      C3165   1.493       .  S
C3164      H3176   1.085       .  S
C3165      C3166   1.406       .  A
C3165      C3170   1.406       .  A
C3166      C3167   1.407       .  A
C3166      H3177   1.083       .  S
C3167      C3168   1.408       .  A
C3167      H3178   1.083       .  S
C3168      C3169   1.407       .  A
C3169      C3170   1.394       .  A
C3169      H3179   1.083       .  S
C3170      H3180   1.083       .  S
C3181      C3182   1.405       .  A
C3181      C3186   1.406       .  A
C3182      C3183   1.404       .  A
C3182      H3195   1.083       .  S
C3183      C3184   1.406       .  A
C3183      H3196   1.083       .  S
C3184      C3185   1.405       .  A
C3184      C3187   1.488       .  S
C3185      C3186   1.396       .  A
C3185      H3197   1.082       .  S
C3186      H3198   1.083       .  S
C3187      C3188   1.348       .  D
C3187      H3199   1.086       .  S
C3188      C3189   1.486       .  S
C3188      H3200   1.086       .  S
C3189      C3190   1.403       .  A
C3189      C3194   1.407       .  A
C3190      C3191   1.399       .  A
C3190      H3201   1.083       .  S
C3191      C3192   1.406       .  A
C3191      H3202   1.083       .  S
C3192      C3193   1.407       .  A
C3193      C3194   1.402       .  A
C3193      H3203   1.083       .  S
C3194      H3204   1.082       .  S
C3205      C3206   1.406       .  A
C3205      C3210   1.408       .  A
C3206      C3207   1.398       .  A
C3206      H3219   1.083       .  S
C3207      C3208   1.403       .  A
C3207      H3220   1.083       .  S
C3208      C3209   1.408       .  A
C3208      C3211   1.488       .  S
C3209      C3210   1.404       .  A
C3209      H3221   1.082       .  S
C3210      H3222   1.083       .  S
C3211      C3212   1.348       .  D
C3211      H3223   1.086       .  S
C3212      C3213   1.490       .  S
C3212      H3224   1.086       .  S
C3213      C3214   1.406       .  A
C3213      C3218   1.406       .  A
C3214      C3215   1.404       .  A
C3214      H3225   1.083       .  S
C3215      C3216   1.405       .  A
C3215      H3226   1.083       .  S
C3216      C3217   1.406       .  A
C3217      C3218   1.396       .  A
C3217      H3227   1.083       .  S
C3218      H3228   1.082       .  S
C3229      C3230   1.404       .  A
C3229      C3234   1.407       .  A
C3230      C3231   1.401       .  A
C3230      H3243   1.083       .  S
C3231      C3232   1.407       .  A
C3231      H3244   1.083       .  S
C3232      C3233   1.409       .  A
C3232      C3235   1.495       .  S
C3233      C3234   1.398       .  A
C3233      H3245   1.079       .  S
C3234      H3246   1.083       .  S
C3235      C3236   1.352       .  D
C3235      H3247   1.085       .  S
C3236      C3237   1.490       .  S
C3236      H3248   1.082       .  S
C3237      C3238   1.405       .  A
C3237      C3242   1.407       .  A
C3238      C3239   1.401       .  A
C3238      H3249   1.083       .  S
C3239      C3240   1.406       .  A
C3239      H3250   1.083       .  S
C3240      C3241   1.408       .  A
C3241      C3242   1.399       .  A
C3241      H3251   1.083       .  S
C3242      H3252   1.082       .  S
C3253      C3254   1.406       .  A
C3253      C3258   1.407       .  A
C3254      C3255   1.398       .  A
C3254      H3267   1.083       .  S
C3255      C3256   1.403       .  A
C3255      H3268   1.083       .  S
C3256      C3257   1.408       .  A
C3256      C3259   1.489       .  S
C3257      C3258   1.402       .  A
C3257      H3269   1.082       .  S
C3258      H3270   1.083       .  S
C3259      C3260   1.347       .  D
C3259      H3271   1.086       .  S
C3260      C3261   1.488       .  S
C3260      H3272   1.085       .  S
C3261      C3262   1.402       .  A
C3261      C3266   1.408       .  A
C3262      C3263   1.398       .  A
C3262      H3273   1.083       .  S
C3263      C3264   1.407   1_455  A
C3263      H3274   1.083       .  S
C3264      C3265   1.406       .  A
C3265      C3266   1.401   1_655  A
C3265      H3275   1.083       .  S
C3266      H3276   1.082       .  S
C3277      C3278   1.405   1_556  A
C3277      C3282   1.409       .  A
C3278      C3279   1.389       .  A
C3278      H3291   1.083       .  S
C3279      C3280   1.401       .  A
C3279      H3292   1.084       .  S
C3280      C3281   1.412       .  A
C3280      C3283   1.491       .  S
C3281      C3282   1.412   1_554  A
C3281      H3293   1.081       .  S
C3282      H3294   1.083       .  S
C3283      C3284   1.349       .  D
C3283      H3295   1.087       .  S
C3284      C3285   1.493       .  S
C3284      H3296   1.084       .  S
C3285      C3286   1.406       .  A
C3285      C3290   1.405       .  A
C3286      C3287   1.409       .  A
C3286      H3297   1.083       .  S
C3287      C3288   1.409       .  A
C3287      H3298   1.083       .  S
C3288      C3289   1.406       .  A
C3289      C3290   1.392       .  A
C3289      H3299   1.083       .  S
C3290      H3300   1.083       .  S
C3301      C3302   1.406       .  A
C3301      C3306   1.407       .  A
C3302      C3303   1.393       .  A
C3302      H3315   1.083       .  S
C3303      C3304   1.401       .  A
C3303      H3316   1.084       .  S
C3304      C3305   1.409       .  A
C3304      C3307   1.485       .  S
C3305      C3306   1.405       .  A
C3305      H3317   1.081       .  S
C3306      H3318   1.083       .  S
C3307      C3308   1.347       .  D
C3307      H3319   1.087       .  S
C3308      C3309   1.487       .  S
C3308      H3320   1.085       .  S
C3309      C3310   1.405       .  A
C3309      C3314   1.405       .  A
C3310      C3311   1.405       .  A
C3310      H3321   1.083       .  S
C3311      C3312   1.408       .  A
C3311      H3322   1.083       .  S
C3312      C3313   1.406       .  A
C3313      C3314   1.392       .  A
C3313      H3323   1.083       .  S
C3314      H3324   1.083       .  S
C3325      C3326   1.407       .  A
C3325      C3330   1.406       .  A
C3326      C3327   1.401       .  A
C3326      H3339   1.083       .  S
C3327      C3328   1.404       .  A
C3327      H3340   1.084       .  S
C3328      C3329   1.409       .  A
C3328      C3331   1.492       .  S
C3329      C3330   1.399       .  A
C3329      H3341   1.081       .  S
C3330      H3342   1.083       .  S
C3331      C3332   1.348       .  D
C3331      H3343   1.086       .  S
C3332      C3333   1.486       .  S
C3332      H3344   1.085       .  S
C3333      C3334   1.402       .  A
C3333      C3338   1.411       .  A
C3334      C3335   1.394       .  A
C3334      H3345   1.084       .  S
C3335      C3336   1.402       .  A
C3335      H3346   1.084       .  S
C3336      C3337   1.404       .  A
C3337      C3338   1.405       .  A
C3337      H3347   1.083       .  S
C3338      H3348   1.082       .  S
C3349      C3350   1.407       .  A
C3349      C3354   1.405       .  A
C3350      C3351   1.397       .  A
C3350      H3363   1.083       .  S
C3351      C3352   1.401       .  A
C3351      H3364   1.083       .  S
C3352      C3353   1.408       .  A
C3352      C3355   1.484       .  S
C3353      C3354   1.400       .  A
C3353      H3365   1.082       .  S
C3354      H3366   1.083       .  S
C3355      C3356   1.344       .  D
C3355      H3367   1.086       .  S
C3356      C3357   1.483       .  S
C3356      H3368   1.086       .  S
C3357      C3358   1.401       .  A
C3357      C3362   1.408       .  A
C3358      C3359   1.396       .  A
C3358      H3369   1.083       .  S
C3359      C3360   1.405       .  A
C3359      H3370   1.083       .  S
C3360      C3361   1.405       .  A
C3361      C3362   1.402       .  A
C3361      H3371   1.083       .  S
C3362      H3372   1.082       .  S
C3373      C3374   1.405       .  A
C3373      C3378   1.407       .  A
C3374      C3375   1.399       .  A
C3374      H3387   1.083       .  S
C3375      C3376   1.403       .  A
C3375      H3388   1.083       .  S
C3376      C3377   1.406       .  A
C3376      C3379   1.484       .  S
C3377      C3378   1.400       .  A
C3377      H3389   1.083       .  S
C3378      H3390   1.083       .  S
C3379      C3380   1.346   1_655  D
C3379      H3391   1.087   1_655  S
C3380      C3381   1.484       .  S
C3380      H3392   1.086       .  S
C3381      C3382   1.402       .  A
C3381      C3386   1.406       .  A
C3382      C3383   1.399       .  A
C3382      H3393   1.083       .  S
C3383      C3384   1.406       .  A
C3383      H3394   1.083       .  S
C3384      C3385   1.406       .  A
C3385      C3386   1.401       .  A
C3385      H3395   1.083       .  S
C3386      H3396   1.083       .  S
C3397      C3398   1.406       .  A
C3397      C3402   1.406       .  A
C3398      C3399   1.401       .  A
C3398      H3411   1.083       .  S
C3399      C3400   1.405       .  A
C3399      H3412   1.083       .  S
C3400      C3401   1.408       .  A
C3400      C3403   1.491       .  S
C3401      C3402   1.397       .  A
C3401      H3413   1.082       .  S
C3402      H3414   1.083       .  S
C3403      C3404   1.350       .  D
C3403      H3415   1.083       .  S
C3404      C3405   1.491       .  S
C3404      H3416   1.085       .  S
C3405      C3406   1.404       .  A
C3405      C3410   1.409       .  A
C3406      C3407   1.397       .  A
C3406      H3417   1.083       .  S
C3407      C3408   1.405       .  A
C3407      H3418   1.083       .  S
C3408      C3409   1.408       .  A
C3409      C3410   1.402       .  A
C3409      H3419   1.083       .  S
C3410      H3420   1.080       .  S
