geometry optimzed in LAMMPS
_audit_creation_date              2020-12-01 
_audit_creation_method            'lammps2cif' 
_symmetry_space_group_name_H-M    'P1' 
_symmetry_Int_Tables_number       1 
_symmetry_cell_setting            triclinic 
loop_ 
_symmetry_equiv_pos_as_xyz 
  x,y,z 
_cell_length_a                    40.96227028 
_cell_length_b                    41.02845057034386 
_cell_length_c                    41.273541921084366 
_cell_angle_alpha                 90.57960499210292 
_cell_angle_beta                  89.46371081172637 
_cell_angle_gamma                 120.66408409428878 
loop_ 
_atom_site_label 
_atom_site_type_symbol 
_atom_site_fract_x 
_atom_site_fract_y 
_atom_site_fract_z 
_atom_site_charge 
O1          O  0.58325424  0.17488113  0.26144274    -0.84200
O2          O  0.64901323  0.17642659  0.27668211    -0.81300
C3          C  0.67774896  0.17278795  0.27498324     0.99200
O4          O  0.68928122  0.16825204  0.24762944    -0.81300
O5          O  0.63044780  0.09598272  0.23024952    -0.84000
C6          C  0.59684485  0.07075093  0.22290534     1.03800
O7          O  0.57699527  0.07853268  0.20456161    -0.76700
O8          O  0.55226398  0.11491082  0.24676599    -0.76900
C9          C  0.55609325  0.14146496  0.26528351     1.03700
O10         O  0.61828491  0.21828283  0.20549481    -0.84200
O11         O  0.68638318  0.22664738  0.22378338    -0.81300
C12         C  0.69773372  0.22540215  0.19558395     0.99200
O13         O  0.68713417  0.19379931  0.18209317    -0.81300
O14         O  0.63541410  0.11979254  0.16487402    -0.83900
C15         C  0.61948781  0.13101122  0.14570533     1.03700
O16         O  0.59493054  0.13828206  0.15653910    -0.76800
O17         O  0.56265261  0.16787262  0.19790684    -0.76900
C18         C  0.58387729  0.20352818  0.19776059     1.03700
Cr19       Cr  0.63349964  0.19603726  0.24018173     1.93700
Cr20       Cr  0.65813115  0.14523261  0.20696293     1.93200
Cr21       Cr  0.57518005  0.12660939  0.20207986     1.39100
O22         O  0.62192957  0.15555074  0.21690578    -1.22000
O23         O  0.77596575  0.23165969  0.41265102    -0.84200
O24         O  0.83604053  0.26781730  0.45641264    -0.81300
C25         C  0.86189888  0.28889852  0.43662578     0.99200
O26         O  0.86424008  0.31910961  0.42674621    -0.81300
O27         O  0.83909390  0.36576032  0.40489605    -0.84000
C28         C  0.82421705  0.35005206  0.37817016     1.03800
O29         O  0.79362171  0.31843766  0.37782750    -0.76700
O30         O  0.73576099  0.24878642  0.39768373    -0.76900
C31         C  0.75074368  0.22887071  0.39333179     1.03700
O32         O  0.72539235  0.23335675  0.46128192    -0.84200
O33         O  0.78680899  0.27670733  0.50205109    -0.81300
C34         C  0.81693544  0.30549611  0.51222670     0.99200
O35         O  0.84261313  0.32675662  0.49238789    -0.81300
O36         O  0.80935195  0.36636511  0.46886861    -0.83900
C37         C  0.78463632  0.37004017  0.45375945     1.03700
O38         O  0.77226985  0.35341162  0.42699461    -0.76800
O39         O  0.72043089  0.28290471  0.45106491    -0.76900
C40         C  0.70648571  0.24995676  0.46240161     1.03700
Cr41       Cr  0.78194658  0.25559300  0.45700555     1.93700
Cr42       Cr  0.83577975  0.34146285  0.44775794     1.93200
Cr43       Cr  0.75813652  0.30085871  0.41526486     1.39100
O44         O  0.79195712  0.29926416  0.44007010    -1.22000
O45         O  0.73899474  0.54424326  0.41293506    -0.84200
O46         O  0.71284003  0.57947192  0.45560138    -0.81300
C47         C  0.69203333  0.58583965  0.43725700     0.99200
O48         O  0.65949423  0.55904317  0.42913651    -0.81300
O49         O  0.60204301  0.48600300  0.41349613    -0.84000
C50         C  0.61341112  0.48191790  0.38604537     1.03800
O51         O  0.64235099  0.47860508  0.38379839    -0.76700
O52         O  0.71038036  0.48404087  0.39878399    -0.76900
C53         C  0.73639539  0.51793914  0.39480054     1.03700
O54         O  0.73217068  0.49331012  0.46223591    -0.84200
O55         O  0.69858417  0.52135501  0.50319707    -0.81300
C56         C  0.67295190  0.52681444  0.51451182     0.99200
O57         O  0.65512254  0.53595713  0.49553785    -0.81300
O58         O  0.60495827  0.46173661  0.47842101    -0.83900
C59         C  0.59509286  0.43003781  0.46539888     1.03700
O60         O  0.60779617  0.42841094  0.43782364    -0.76800
O61         O  0.67823013  0.44054354  0.45501034    -0.76900
C62         C  0.71270579  0.45754415  0.46337338     1.03700
Cr63       Cr  0.71706094  0.53257593  0.45771472     1.93700
Cr64       Cr  0.63313806  0.51013724  0.45337769     1.93200
Cr65       Cr  0.66025971  0.46096523  0.42054093     1.39100
O66         O  0.67034724  0.50133077  0.44361924    -1.22000
O67         O  0.55293937  0.40821458  0.26946462    -0.84200
O68         O  0.49315851  0.33898051  0.28850377    -0.81300
C69         C  0.46371213  0.30647053  0.28734680     0.99200
O70         O  0.45020687  0.29109739  0.26016595    -0.81300
O71         O  0.42708004  0.33839625  0.23449848    -0.84000
C72         C  0.43076902  0.36869247  0.22314420     1.03800
O73         O  0.45807485  0.38891388  0.20414941    -0.76700
O74         O  0.51530860  0.42637343  0.24957984    -0.76900
C75         C  0.53880689  0.42917632  0.27069592     1.03700
O76         O  0.57156816  0.37259233  0.21960403    -0.84200
O77         O  0.51669148  0.30287215  0.24281117    -0.81300
C78         C  0.50847263  0.28787095  0.21509405     0.99200
O79         O  0.48462517  0.29096702  0.19807825    -0.81300
O80         O  0.45273406  0.33006263  0.17147387    -0.83900
C81         C  0.47970463  0.35017303  0.15229994     1.03700
O82         O  0.50953758  0.37859092  0.16318556    -0.76800
O83         O  0.56844320  0.42229794  0.20576464    -0.76900
C84         C  0.58680144  0.40518078  0.20729102     1.03700
Cr85       Cr  0.53130950  0.35580819  0.25312817     1.93700
Cr86       Cr  0.45650517  0.31546699  0.21666920     1.93200
Cr87       Cr  0.51181570  0.40088484  0.20687433     1.39100
O88         O  0.49982385  0.35757109  0.22567308    -1.22000
O89         O  0.42315573  0.20495197  0.42219274    -0.84200
O90         O  0.39649883  0.14269085  0.46330509    -0.81300
C91         C  0.39129922  0.11921181  0.44104390     0.99200
O92         O  0.41938234  0.11839338  0.42922060    -0.81300
O93         O  0.49228664  0.14334807  0.40808420    -0.84000
C94         C  0.49706093  0.16288009  0.38312004     1.03800
O95         O  0.49880618  0.19443053  0.38567799    -0.76700
O96         O  0.48206675  0.24696845  0.40898690    -0.76900
C97         C  0.44684168  0.23144971  0.40413634     1.03700
O98         O  0.47287282  0.25302021  0.47226291    -0.84200
O99         O  0.45397128  0.18910631  0.50949510    -0.81300
C100        C  0.45306496  0.15885211  0.51727151     0.99200
O101        O  0.44724337  0.13406849  0.49592661    -0.81300
O102        O  0.51968533  0.16459458  0.47303889    -0.83900
C103        C  0.55020450  0.19111681  0.46139193     1.03700
O104        O  0.55008040  0.21143120  0.43870598    -0.76800
O105        O  0.52873121  0.25989489  0.46429707    -0.76900
C106        C  0.50859215  0.27311227  0.47436168     1.03700
Cr107      Cr  0.43909535  0.19667742  0.46566689     1.93700
Cr108      Cr  0.46966940  0.14337023  0.45129089     1.93200
Cr109      Cr  0.51201606  0.22522700  0.42611835     1.39100
O110        O  0.47388469  0.18849342  0.44770995    -1.22000
O111        O  0.81129510  0.40830239  0.25566330    -0.84200
O112        O  0.79814920  0.46396382  0.27920088    -0.81300
C113        C  0.79885621  0.49513130  0.28038938     0.99200
O114        O  0.80386625  0.51389823  0.25494017    -0.81300
O115        O  0.87712633  0.53854948  0.23364521    -0.84000
C116        C  0.90439298  0.53517398  0.22317113     1.03800
O117        O  0.89833400  0.51099109  0.20131133    -0.76700
O118        O  0.87031042  0.44870721  0.24191617    -0.76900
C119        C  0.84638666  0.42250561  0.25997344     1.03700
O120        O  0.76392268  0.39603190  0.20158570    -0.84200
O121        O  0.74580905  0.44714839  0.22788901    -0.81300
C122        C  0.74480899  0.46588103  0.20433275     0.99200
O123        O  0.77506427  0.49117377  0.19101239    -0.81300
O124        O  0.84817495  0.52148427  0.16770575    -0.83900
C125        C  0.84259844  0.49656455  0.14669990     1.03700
O126        O  0.84054545  0.46593632  0.15487623    -0.76800
O127        O  0.81924572  0.40201953  0.19195288    -0.76900
C128        C  0.78345316  0.38248222  0.19053845     1.03700
Cr129      Cr  0.78285926  0.43182635  0.23927033     1.93700
Cr130      Cr  0.82598692  0.51295875  0.21214314     1.93200
Cr131      Cr  0.85467857  0.45781277  0.19869445     1.39100
O132        O  0.82099777  0.46751306  0.21668441    -1.22000
O133        O  0.46054709  0.24995481  0.88919489    -0.84200
O134        O  0.51411935  0.32514001  0.88729097    -0.81300
C135        C  0.49407240  0.33976804  0.88244505     0.99200
O136        O  0.47111728  0.33789448  0.90367453    -0.81300
O137        O  0.42221458  0.31015104  0.95475528    -0.84000
C138        C  0.39546730  0.27765207  0.94591448     1.03800
O139        O  0.39912697  0.24899485  0.94659676    -0.76700
O140        O  0.43298629  0.20901917  0.92843483    -0.76900
C141        C  0.43847201  0.21659429  0.89833793     1.03700
O142        O  0.50370372  0.23836502  0.93725539    -0.84200
O143        O  0.54906402  0.31481474  0.94181417    -0.81300
C144        C  0.56009159  0.34911793  0.94720195     0.99200
O145        O  0.53670474  0.36092585  0.94572061    -0.81300
O146        O  0.48777569  0.33156667  0.99630840    -0.83900
C147        C  0.46601256  0.30689210  0.01610997     1.03700
O148        O  0.44156984  0.27395331  0.00623046    -0.76800
O149        O  0.48211544  0.23980627  0.98548064    -0.76900
C150        C  0.50246132  0.23241354  0.96727732     1.03700
Cr151      Cr  0.50452914  0.28231251  0.91587047     1.93700
Cr152      Cr  0.47896382  0.33168377  0.94988152     1.93200
Cr153      Cr  0.44125473  0.24593581  0.96547001     1.39100
O154        O  0.47486458  0.28692584  0.94405752    -1.22000
O155        O  0.54969418  0.42664666  0.74249162    -0.84200
O156        O  0.57771141  0.50079980  0.72632783    -0.81300
C157        C  0.60221379  0.53557553  0.72573817     0.99200
O158        O  0.63616816  0.54682277  0.71712778    -0.81300
O159        O  0.67250252  0.52898342  0.76294128    -0.84000
C160        C  0.68095039  0.50940921  0.78024606     1.03800
O161        O  0.67275464  0.47667083  0.77118310    -0.76700
O162        O  0.59510814  0.43938117  0.77747651    -0.76900
C163        C  0.56052474  0.42604390  0.77116630     1.03700
O164        O  0.57520759  0.41471396  0.68008344    -0.84200
O165        O  0.60094504  0.48885331  0.66270797    -0.81300
C166        C  0.63412892  0.50250868  0.65091888     0.99200
O167        O  0.66224294  0.51260241  0.66887545    -0.81300
O168        O  0.70219018  0.49957493  0.71294786    -0.83900
C169        C  0.69571077  0.46650615  0.70574738     1.03700
O170        O  0.66346876  0.43790596  0.71104012    -0.76800
O171        O  0.58717454  0.39266675  0.72340110    -0.76900
C172        C  0.57246903  0.38726017  0.69573862     1.03700
Cr173      Cr  0.57960525  0.45918377  0.70414420     1.93700
Cr174      Cr  0.66495654  0.51857278  0.71584072     1.93200
Cr175      Cr  0.62935857  0.43931097  0.74397111     1.39100
O176        O  0.62450019  0.47261109  0.72116621    -1.22000
O177        O  0.53205458  0.11698054  0.74838233    -0.84200
O178        O  0.46952686  0.08279011  0.70710671    -0.81300
C179        C  0.44292481  0.07552995  0.72703159     0.99200
O180        O  0.43695768  0.10144683  0.73651606    -0.81300
O181        O  0.45320883  0.17251891  0.75565158    -0.84000
C182        C  0.46805539  0.17332252  0.78253520     1.03800
O183        O  0.50091676  0.17791985  0.78326035    -0.76700
O184        O  0.56451520  0.17653113  0.76407592    -0.76900
C185        C  0.55603193  0.14259088  0.76703328     1.03700
O186        O  0.57567545  0.17096266  0.69948283    -0.84200
O187        O  0.51235706  0.14217426  0.65969256    -0.81300
C188        C  0.48043343  0.13626152  0.65039587     0.99200
O189        O  0.45407571  0.12690653  0.67076941    -0.81300
O190        O  0.47980683  0.20034968  0.69077162    -0.83900
C191        C  0.50167517  0.23143598  0.70483631     1.03700
O192        O  0.51543820  0.23167382  0.73215630    -0.76800
O193        O  0.57383360  0.22230204  0.71046179    -0.76900
C194        C  0.59172356  0.20673589  0.70007935     1.03700
Cr195      Cr  0.52102167  0.13017528  0.70461037     1.93700
Cr196      Cr  0.45923358  0.15093575  0.71392634     1.93200
Cr197      Cr  0.53620961  0.19920889  0.74577599     1.39100
O198        O  0.50565587  0.16001961  0.72148264    -1.22000
O199        O  0.73693067  0.25042355  0.90583521    -0.84200
O200        O  0.66675628  0.19612145  0.88447569    -0.81300
C201        C  0.63676423  0.16410208  0.88287454     0.99200
O202        O  0.62274523  0.14470712  0.90818375    -0.81300
O203        O  0.67284639  0.12231080  0.92734543    -0.84000
C204        C  0.70201627  0.12382493  0.93893205     1.03800
O205        O  0.72092819  0.14823130  0.96050890    -0.76700
O206        O  0.75619509  0.21097970  0.91894588    -0.76900
C207        C  0.75822818  0.23692527  0.90097694     1.03700
O208        O  0.70379211  0.26309286  0.96218617    -0.84200
O209        O  0.63276508  0.21229809  0.93911478    -0.81300
C210        C  0.61269489  0.19168572  0.96225735     0.99200
O211        O  0.61760198  0.16593730  0.97341858    -0.81300
O212        O  0.66183589  0.13756171  0.99420158    -0.83900
C213        C  0.67970300  0.16306633  0.01527353     1.03700
O214        O  0.70833538  0.19433698  0.00707342    -0.76800
O215        O  0.75347688  0.25768880  0.96894845    -0.76900
C216        C  0.73783786  0.27734177  0.97093983     1.03700
Cr217      Cr  0.68507569  0.22755027  0.92456503     1.93700
Cr218      Cr  0.64694779  0.14600126  0.95039729     1.93200
Cr219      Cr  0.73139738  0.20179346  0.96288342     1.39100
O220        O  0.68766458  0.19183697  0.94574755    -1.22000
O221        O  0.88865028  0.43281712  0.74351895    -0.84200
O222        O  0.90720965  0.39288716  0.69981351    -0.81300
C223        C  0.91220111  0.37353965  0.72083121     0.99200
O224        O  0.88398202  0.34367232  0.73183897    -0.81300
O225        O  0.81164455  0.29774978  0.75632923    -0.84000
C226        C  0.81368712  0.31363078  0.78329598     1.03800
O227        O  0.81749141  0.34619869  0.78390729    -0.76700
O228        O  0.83268270  0.41663964  0.76381474    -0.76900
C229        C  0.86837444  0.43658929  0.76484505     1.03700
O230        O  0.83351892  0.42988712  0.69882787    -0.84200
O231        O  0.84606120  0.38313331  0.65747051    -0.81300
C232        C  0.84634148  0.35404111  0.64732003     0.99200
O233        O  0.85244107  0.33436968  0.66710379    -0.81300
O234        O  0.78001341  0.29722033  0.69378889    -0.83900
C235        C  0.75254314  0.29503786  0.70994519     1.03700
O236        O  0.75839722  0.31188939  0.73685802    -0.76800
O237        O  0.77862144  0.38165706  0.71327012    -0.76900
C238        C  0.79773226  0.41376521  0.70041471     1.03700
Cr239      Cr  0.86654670  0.40657396  0.70106954     1.93700
Cr240      Cr  0.83224218  0.32126529  0.71274429     1.93200
Cr241      Cr  0.79934354  0.36413808  0.74751226     1.39100
O242        O  0.83279976  0.36413506  0.72056222    -1.22000
O243        O  0.75724738  0.49041537  0.89160076    -0.84200
O244        O  0.82399484  0.49289469  0.87818975    -0.81300
C245        C  0.85588343  0.49576336  0.88118139     0.99200
O246        O  0.86930845  0.49808379  0.90918899    -0.81300
O247        O  0.87931009  0.56769183  0.93123115    -0.84000
C248        C  0.86924124  0.59076921  0.94079085     1.03800
O249        O  0.84023513  0.57952705  0.95885917    -0.76700
O250        O  0.78353257  0.54763191  0.91287638    -0.76900
C251        C  0.76316656  0.52375146  0.89153114     1.03700
O252        O  0.74302805  0.43974080  0.94293562    -0.84200
O253        O  0.80589087  0.43623674  0.92744362    -0.81300
C254        C  0.81548724  0.43528946  0.95627727     0.99200
O255        O  0.83548529  0.46573011  0.97177620    -0.81300
O256        O  0.85519007  0.53628815  0.99448330    -0.83900
C257        C  0.82629491  0.52345753  0.01255736     1.03700
O258        O  0.79466416  0.51530977  0.00076752    -0.76800
O259        O  0.73611247  0.48764021  0.95578618    -0.76900
C260        C  0.72228825  0.45227378  0.95267541     1.03700
Cr261      Cr  0.78466285  0.46766823  0.91192984     1.93700
Cr262      Cr  0.85679610  0.51625126  0.95072902     1.93200
Cr263      Cr  0.79032634  0.53080386  0.95615281     1.39100
O264        O  0.81050097  0.50513051  0.93934671    -1.22000
O265        O  0.23804722  0.50204070  0.58719024    -0.84200
O266        O  0.30768586  0.51736842  0.60935737    -0.81300
C267        C  0.33869956  0.51778667  0.61023895     0.99200
O268        O  0.35245812  0.51233272  0.58467398    -0.81300
O269        O  0.30314319  0.43797733  0.56705881    -0.84000
C270        C  0.27289045  0.40920458  0.55736112     1.03800
O271        O  0.25295732  0.41280761  0.53607049    -0.76700
O272        O  0.21852097  0.44241618  0.57604495    -0.76900
C273        C  0.21651579  0.46732684  0.59295159     1.03700
O274        O  0.27239560  0.54570675  0.53104292    -0.84200
O275        O  0.34281603  0.56683989  0.55583101    -0.81300
C276        C  0.36208095  0.56712382  0.53174781     0.99200
O277        O  0.35667124  0.53646495  0.51925201    -0.81300
O278        O  0.31327077  0.46160151  0.49950368    -0.83900
C279        C  0.29332859  0.46544572  0.47840150     1.03700
O280        O  0.26462722  0.46749599  0.48711639    -0.76800
O281        O  0.22172043  0.48999620  0.52431779    -0.76900
C282        C  0.23823512  0.52571696  0.52224782     1.03700
Cr283      Cr  0.29010054  0.52991439  0.56915865     1.93700
Cr284      Cr  0.32811621  0.48707217  0.54296579     1.93200
Cr285      Cr  0.24285566  0.45566237  0.53183041     1.39100
O286        O  0.28710192  0.49098024  0.54796957    -1.22000
O287        O  0.09006991  0.53634409  0.75039288    -0.84200
O288        O  0.06884989  0.47711193  0.79266198    -0.81300
C289        C  0.06436856  0.45251698  0.77153358     0.99200
O290        O  0.09280104  0.45147013  0.76069507    -0.81300
O291        O  0.16546257  0.47830712  0.73769649    -0.84000
C292        C  0.16390526  0.49236612  0.71105223     1.03800
O293        O  0.16126233  0.52174106  0.71098312    -0.76700
O294        O  0.14688652  0.57736029  0.73206075    -0.76900
C295        C  0.11123899  0.56126821  0.73019651     1.03700
O296        O  0.14449121  0.58904775  0.79654655    -0.84200
O297        O  0.12906789  0.52882385  0.83634529    -0.81300
C298        C  0.12764114  0.49896489  0.84579276     0.99200
O299        O  0.12214462  0.47323667  0.82570069    -0.81300
O300        O  0.19592935  0.50857803  0.80103725    -0.83900
C301        C  0.22426473  0.53385787  0.78546453     1.03700
O302        O  0.21930237  0.54597490  0.75904677    -0.76800
O303        O  0.19953935  0.59578627  0.78349184    -0.76900
C304        C  0.18042803  0.60877291  0.79631171     1.03700
Cr305      Cr  0.11047258  0.53208612  0.79284012     1.93700
Cr306      Cr  0.14397940  0.48076421  0.78092050     1.93200
Cr307      Cr  0.17917116  0.55770062  0.74820595     1.39100
O308        O  0.14452399  0.52358206  0.77395143    -1.22000
O309        O  0.42315521  0.89177101  0.75595649    -0.84200
O310        O  0.38861032  0.91917900  0.79817324    -0.81300
C311        C  0.36919958  0.92341589  0.77684565     0.99200
O312        O  0.33932564  0.89493565  0.76627008    -0.81300
O313        O  0.28911823  0.82102855  0.74766833    -0.84000
C314        C  0.30209279  0.81526132  0.72179802     1.03800
O315        O  0.33301112  0.81544602  0.72197668    -0.76700
O316        O  0.40381939  0.83263050  0.74247742    -0.76900
C317        C  0.42507482  0.86770741  0.73776014     1.03700
O318        O  0.42154893  0.84320170  0.80572252    -0.84200
O319        O  0.37803421  0.86305577  0.84500516    -0.81300
C320        C  0.34910686  0.86453339  0.85387672     0.99200
O321        O  0.32956733  0.86959267  0.83315957    -0.81300
O322        O  0.28547845  0.79568080  0.81220190    -0.83900
C323        C  0.28015560  0.76511463  0.79967352     1.03700
O324        O  0.30001491  0.76533956  0.77601890    -0.76800
O325        O  0.37133407  0.78728949  0.79864715    -0.76900
C326        C  0.40540266  0.80757082  0.80756022     1.03700
Cr327      Cr  0.39939287  0.87673458  0.80019160     1.93700
Cr328      Cr  0.31418117  0.84538186  0.78940895     1.93200
Cr329      Cr  0.35220171  0.80319506  0.76154461     1.39100
O330        O  0.35511697  0.84153558  0.78370752    -1.22000
O331        O  0.19470914  0.71428202  0.61533648    -0.84200
O332        O  0.15670900  0.63579867  0.60741021    -0.81300
C333        C  0.12413882  0.62967818  0.61434499     0.99200
O334        O  0.10812906  0.64096607  0.59578796    -0.81300
O335        O  0.09662227  0.67993972  0.54976419    -0.84000
C336        C  0.10962547  0.71487642  0.55578384     1.03800
O337        O  0.14484514  0.73831778  0.55474047    -0.76700
O338        O  0.21554483  0.76088442  0.57996457    -0.76900
C339        C  0.21216930  0.74927323  0.60913998     1.03700
O340        O  0.24754798  0.72162682  0.56758240    -0.84200
O341        O  0.20208340  0.64724813  0.55195637    -0.81300
C342        C  0.17414493  0.61691351  0.54167464     0.99200
O343        O  0.14024208  0.60999614  0.54655724    -0.81300
O344        O  0.12975000  0.65101940  0.50267730    -0.83900
C345        C  0.14534859  0.67855015  0.48376326     1.03700
O346        O  0.16332817  0.71231897  0.49472893    -0.76800
O347        O  0.23300763  0.73334043  0.52034310    -0.76900
C348        C  0.25711940  0.73361421  0.53913895     1.03700
Cr349      Cr  0.19774964  0.68018814  0.58359842     1.93700
Cr350      Cr  0.12222892  0.64861744  0.54932406     1.93200
Cr351      Cr  0.18731902  0.73260840  0.53874935     1.39100
O352        O  0.16872853  0.68730202  0.55683473    -1.22000
O353        O  0.42395135  0.57220791  0.75233099    -0.84200
O354        O  0.49446493  0.59377676  0.77505127    -0.81300
C355        C  0.52966736  0.61653640  0.77266878     0.99200
O356        O  0.54406084  0.65112340  0.78080053    -0.81300
O357        O  0.53256475  0.69075167  0.73508332    -0.84000
C358        C  0.51668565  0.70276925  0.71713993     1.03800
O359        O  0.48449857  0.69725829  0.72470671    -0.76700
O360        O  0.44519412  0.61866461  0.71675630    -0.76900
C361        C  0.42736441  0.58373602  0.72318253     1.03700
O362        O  0.40818203  0.59995473  0.81223225    -0.84200
O363        O  0.47917468  0.62005354  0.83646011    -0.81300
C364        C  0.49777252  0.65391354  0.84709077     0.99200
O365        O  0.51310588  0.68152978  0.82831080    -0.81300
O366        O  0.50266644  0.72291530  0.78508309    -0.83900
C367        C  0.46908566  0.71660152  0.79062453     1.03700
O368        O  0.44053464  0.68648403  0.78081393    -0.76800
O369        O  0.39340645  0.61244407  0.76531433    -0.76900
C370        C  0.38386202  0.59975454  0.79358994     1.03700
Cr371      Cr  0.45337562  0.60009379  0.79295233     1.93700
Cr372      Cr  0.51953896  0.68350177  0.78176389     1.93200
Cr373      Cr  0.44340963  0.65320830  0.74880078     1.39100
O374        O  0.47240231  0.64547249  0.77500001    -1.22000
O375        O  0.49304545  0.75718447  0.60110397    -0.84200
O376        O  0.48050109  0.81459404  0.62101554    -0.81300
C377        C  0.47810472  0.84412158  0.62021771     0.99200
O378        O  0.47589124  0.85717455  0.59328717    -0.81300
O379        O  0.54774746  0.88268454  0.56908669    -0.84000
C380        C  0.57582173  0.88104543  0.55816970     1.03800
O381        O  0.57077905  0.85517933  0.53824754    -0.76700
O382        O  0.54970986  0.79687201  0.58168554    -0.76900
C383        C  0.52861787  0.77232092  0.60215702     1.03700
O384        O  0.43965332  0.73752213  0.55047713    -0.84200
O385        O  0.42149898  0.78933974  0.57398243    -0.81300
C386        C  0.41604596  0.80000960  0.54704166     0.99200
O387        O  0.44400143  0.82465057  0.53087734    -0.81300
O388        O  0.51638042  0.85844102  0.50538989    -0.83900
C389        C  0.51058163  0.83217541  0.48590770     1.03700
O390        O  0.51049106  0.80308679  0.49562985    -0.76800
O391        O  0.49430284  0.74370921  0.53656968    -0.76900
C392        C  0.45837539  0.72414322  0.53742034     1.03700
Cr393      Cr  0.46120960  0.77710416  0.58476548     1.93700
Cr394      Cr  0.49610686  0.85281187  0.55014559     1.93200
Cr395      Cr  0.52895629  0.80055688  0.53926733     1.39100
O396        O  0.49547365  0.81007722  0.55804861    -1.22000
O397        O  0.22227049  0.80236076  0.08381901    -0.84200
O398        O  0.26178689  0.86251766  0.04191080    -0.81300
C399        C  0.28179535  0.88703156  0.06313418     0.99200
O400        O  0.31047074  0.88746280  0.07473268    -0.81300
O401        O  0.35544049  0.86029827  0.09721056    -0.84000
C402        C  0.33862792  0.84399779  0.12312506     1.03800
O403        O  0.30648362  0.81415990  0.12186556    -0.76700
O404        O  0.23635344  0.76026484  0.10009364    -0.76900
C405        C  0.21787102  0.77701547  0.10346927     1.03700
O406        O  0.22282156  0.75025946  0.03586286    -0.84200
O407        O  0.27050579  0.81294151  0.99702812    -0.81300
C408        C  0.30047898  0.84284977  0.98835129     0.99200
O409        O  0.32061715  0.86776008  0.00920122    -0.81300
O410        O  0.35828199  0.83344489  0.03296315    -0.83900
C411        C  0.36017825  0.80717614  0.04694456     1.03700
O412        O  0.34118211  0.79238699  0.07240275    -0.76800
O413        O  0.27079259  0.74309908  0.04728446    -0.76900
C414        C  0.23816265  0.73004155  0.03540644     1.03700
Cr415      Cr  0.24744280  0.80764302  0.04081060     1.93700
Cr416      Cr  0.33301947  0.85921319  0.05389129     1.93200
Cr417      Cr  0.28885969  0.78017568  0.08359377     1.39100
O418        O  0.28982844  0.81558674  0.05932121    -1.22000
O419        O  0.40105148  0.82410088  0.24331619    -0.84200
O420        O  0.45723664  0.81211002  0.22168046    -0.81300
C421        C  0.48985572  0.81609791  0.22000751     0.99200
O422        O  0.50840098  0.82027998  0.24546191    -0.81300
O423        O  0.52911780  0.89255548  0.26600395    -0.84000
C424        C  0.52446180  0.91890208  0.27670741     1.03800
O425        O  0.50131271  0.91191154  0.29963840    -0.76700
O426        O  0.43941450  0.88343658  0.25794681    -0.76900
C427        C  0.41342850  0.85904297  0.23989018     1.03700
O428        O  0.38783476  0.77717038  0.29793854    -0.84200
O429        O  0.44070096  0.76008743  0.27424288    -0.81300
C430        C  0.46066019  0.76070373  0.29764172     0.99200
O431        O  0.48602670  0.79177530  0.30982442    -0.81300
O432        O  0.51294115  0.86448594  0.33246891    -0.83900
C433        C  0.48698984  0.85628444  0.35320509     1.03700
O434        O  0.45587879  0.85296236  0.34467996    -0.76800
O435        O  0.39297038  0.83209049  0.30668029    -0.76900
C436        C  0.37340288  0.79643456  0.30752640     1.03700
Cr437      Cr  0.42461616  0.79626539  0.26103128     1.93700
Cr438      Cr  0.50581614  0.84199954  0.28815405     1.93200
Cr439      Cr  0.44848591  0.86784478  0.30115771     1.39100
O440        O  0.45950295  0.83503065  0.28343572    -1.22000
O441        O  0.15758888  0.60673451  0.22347354    -0.84200
O442        O  0.15798098  0.67245148  0.21319084    -0.81300
C443        C  0.15634332  0.70196356  0.21747152     0.99200
O444        O  0.15423940  0.71251120  0.24591088    -0.81300
O445        O  0.08292989  0.65218570  0.26536740    -0.84000
C446        C  0.05890500  0.61823874  0.27303661     1.03800
O447        O  0.06877772  0.59978948  0.29099761    -0.76700
O448        O  0.10016722  0.57459463  0.24446759    -0.76900
C449        C  0.12412671  0.57895736  0.22287869     1.03700
O450        O  0.20781329  0.64039911  0.27559890    -0.84200
O451        O  0.21431672  0.70855805  0.26340799    -0.81300
C452        C  0.21523324  0.71810166  0.29271675     0.99200
O453        O  0.18473019  0.70810638  0.30792024    -0.81300
O454        O  0.11316728  0.65760776  0.32914623    -0.83900
C455        C  0.12548629  0.64109428  0.34644262     1.03700
O456        O  0.13222808  0.61699526  0.33368337    -0.76800
O457        O  0.15845883  0.58548666  0.28767413    -0.76900
C458        C  0.19400928  0.60661403  0.28456367     1.03700
Cr459      Cr  0.18155592  0.65631247  0.24582455     1.93700
Cr460      Cr  0.13430525  0.68016324  0.28603594     1.93200
Cr461      Cr  0.11669727  0.59773443  0.28844624     1.39100
O462        O  0.14395261  0.64437137  0.27311947    -1.22000
O463        O  0.20270444  0.45263439  0.07557831    -0.84200
O464        O  0.14050371  0.42134008  0.03426891    -0.81300
C465        C  0.11610104  0.41524271  0.05596156     0.99200
O466        O  0.11075584  0.44176699  0.06478500    -0.81300
O467        O  0.13096483  0.51460339  0.08296533    -0.84000
C468        C  0.14865194  0.51972802  0.10911062     1.03800
O469        O  0.18074972  0.52239241  0.10906807    -0.76700
O470        O  0.23931255  0.51238514  0.08949464    -0.76900
C471        C  0.22826730  0.47782986  0.09344222     1.03700
O472        O  0.24831009  0.50305624  0.02585252    -0.84200
O473        O  0.18528100  0.47925815  0.98704401    -0.81300
C474        C  0.15382479  0.47452900  0.97776537     0.99200
O475        O  0.12761599  0.46675771  0.99804392    -0.81300
O476        O  0.15464551  0.54142510  0.01865317    -0.83900
C477        C  0.17833566  0.57262953  0.03198364     1.03700
O478        O  0.19730822  0.57333012  0.05617495    -0.76800
O479        O  0.25211165  0.55759839  0.03392299    -0.76900
C480        C  0.26716164  0.53874982  0.02461816     1.03700
Cr481      Cr  0.19294608  0.46629787  0.03161687     1.93700
Cr482      Cr  0.13440276  0.49145553  0.04145834     1.93200
Cr483      Cr  0.21452458  0.53835109  0.07035686     1.39100
O484        O  0.18073439  0.49890359  0.04784260    -1.22000
O485        O  0.54146373  0.76982526  0.08197469    -0.84200
O486        O  0.57534339  0.74214366  0.03994424    -0.81300
C487        C  0.58202223  0.72169276  0.05848957     0.99200
O488        O  0.55539258  0.68937746  0.06707723    -0.81300
O489        O  0.48313954  0.63378872  0.08467013    -0.84000
C490        C  0.48112261  0.64669939  0.11206734     1.03800
O491        O  0.47833483  0.67589665  0.11379273    -0.76700
O492        O  0.48158866  0.74204948  0.09681112    -0.76900
C493        C  0.51568695  0.76764812  0.10057323     1.03700
O494        O  0.48821902  0.76060794  0.03306030    -0.84200
O495        O  0.51668310  0.72632404  0.99226273    -0.81300
C496        C  0.52272865  0.70078987  0.98176072     0.99200
O497        O  0.53146386  0.68331035  0.00147860    -0.81300
O498        O  0.45678630  0.63469060  0.01980942    -0.83900
C499        C  0.42570442  0.62510232  0.03399829     1.03700
O500        O  0.42563672  0.63786943  0.06189774    -0.76800
O501        O  0.43629680  0.70648459  0.04229488    -0.76900
C502        C  0.45229147  0.74052428  0.03320184     1.03700
Cr503      Cr  0.52847211  0.74639061  0.03759086     1.93700
Cr504      Cr  0.50607179  0.66288156  0.04387095     1.93200
Cr505      Cr  0.45840433  0.69111690  0.07699753     1.39100
O506        O  0.49785359  0.70042308  0.05299299    -1.22000
O507        O  0.39209864  0.55008119  0.21579803    -0.84200
O508        O  0.31641537  0.52523166  0.21635558    -0.81300
C509        C  0.30313907  0.49074063  0.20953698     0.99200
O510        O  0.30477438  0.46908113  0.22982105    -0.81300
O511        O  0.33382260  0.44793136  0.27909248    -0.84000
C512        C  0.36618375  0.45475307  0.26908205     1.03800
O513        O  0.39455438  0.48786008  0.26943606    -0.76700
O514        O  0.43380970  0.56322742  0.25409266    -0.76900
C515        C  0.42580847  0.56267262  0.22423659     1.03700
O516        O  0.40396174  0.60295424  0.26708064    -0.84200
O517        O  0.32796988  0.56886597  0.27354201    -0.81300
C518        C  0.29349953  0.54507034  0.27795923     0.99200
O519        O  0.28149727  0.50969164  0.27487515    -0.81300
O520        O  0.31296572  0.49026546  0.32339212    -0.83900
C521        C  0.33761330  0.49213743  0.34232698     1.03700
O522        O  0.37072022  0.50225716  0.33168331    -0.76800
O523        O  0.40457866  0.57860124  0.31375111    -0.76900
C524        C  0.41166118  0.60703144  0.29691477     1.03700
Cr525      Cr  0.35983658  0.55912651  0.24500738     1.93700
Cr526      Cr  0.31162201  0.48226729  0.27658430     1.93200
Cr527      Cr  0.39786503  0.53217656  0.29110525     1.39100
O528        O  0.35623712  0.52416845  0.27116561    -1.22000
O529        O  0.88887796  0.12575397  0.41289821    -0.84200
O530        O  0.92167345  0.18740300  0.37107206    -0.81300
C531        C  0.94039621  0.21367353  0.39155318     0.99200
O532        O  0.97109073  0.21831259  0.40283722    -0.81300
O533        O  0.02413201  0.20023622  0.42434426    -0.84000
C534        C  0.00984681  0.18245874  0.45049994     1.03800
O535        O  0.97926713  0.15104752  0.44980173    -0.76700
O536        O  0.91224630  0.09089547  0.42911316    -0.76900
C537        C  0.88830757  0.10146211  0.43192005     1.03700
O538        O  0.89748255  0.07892719  0.36558213    -0.84200
O539        O  0.93841495  0.14244335  0.32598275    -0.81300
C540        C  0.96508296  0.17432572  0.31661836     0.99200
O541        O  0.98230186  0.20103297  0.33690423    -0.81300
O542        O  0.02836713  0.17548057  0.35912289    -0.83900
C543        C  0.03530651  0.15233332  0.37285048     1.03700
O544        O  0.01888910  0.13681124  0.39909097    -0.76800
O545        O  0.95071288  0.08127821  0.37540346    -0.76900
C546        C  0.91675025  0.06264316  0.36624818     1.03700
Cr547      Cr  0.91490650  0.13496304  0.36981134     1.93700
Cr548      Cr  0.99867398  0.19567570  0.38134351     1.93200
Cr549      Cr  0.96494352  0.11743574  0.41162977     1.39100
O550        O  0.95939296  0.14942186  0.38785242    -1.22000
O551        O  0.07615386  0.15947195  0.56944986    -0.84200
O552        O  0.13776445  0.15436123  0.55103431    -0.81300
C553        C  0.16970717  0.15684389  0.55169725     0.99200
O554        O  0.18532653  0.15891760  0.57856178    -0.81300
O555        O  0.20318516  0.23069957  0.59885599    -0.84000
C556        C  0.19804628  0.25713097  0.60856622     1.03800
O557        O  0.17135471  0.25010312  0.62834677    -0.76700
O558        O  0.11106804  0.21873734  0.58528947    -0.76900
C559        C  0.08699143  0.19410247  0.56618054     1.03700
O560        O  0.06540344  0.11258002  0.62365934    -0.84200
O561        O  0.12114024  0.10016356  0.60157243    -0.81300
C562        C  0.13472202  0.09934563  0.62868749     0.99200
O563        O  0.15706514  0.13007151  0.64321878    -0.81300
O564        O  0.18343067  0.20391757  0.66425477    -0.83900
C565        C  0.15649056  0.19556367  0.68387258     1.03700
O566        O  0.12487256  0.18942906  0.67369965    -0.76800
O567        O  0.06315195  0.16385994  0.63271295    -0.76900
C568        C  0.04713557  0.12805327  0.63288992     1.03700
Cr569      Cr  0.10243561  0.13445200  0.58813485     1.93700
Cr570      Cr  0.17920696  0.18045545  0.62070904     1.93200
Cr571      Cr  0.11889655  0.20351480  0.62910540     1.39100
O572        O  0.13355947  0.17298412  0.61247686    -1.22000
O573        O  0.21037257  0.10124050  0.41385081    -0.84200
O574        O  0.23567343  0.06662799  0.37035386    -0.81300
C575        C  0.23960088  0.04597771  0.39065495     0.99200
O576        O  0.21094396  0.01601955  0.40071127    -0.81300
O577        O  0.13798220  0.96769746  0.42078887    -0.84000
C578        C  0.13664907  0.98222021  0.44747112     1.03800
O579        O  0.13741634  0.01335348  0.44808597    -0.76700
O580        O  0.15199726  0.08330426  0.42866927    -0.76900
C581        C  0.18731418  0.10368867  0.43284616     1.03700
O582        O  0.15918699  0.09999671  0.36579768    -0.84200
O583        O  0.17821063  0.05773142  0.32500269    -0.81300
C584        C  0.17900307  0.02884423  0.31519035     0.99200
O585        O  0.18409988  0.00863494  0.33503267    -0.81300
O586        O  0.11012810  0.96582613  0.35723879    -0.83900
C587        C  0.08047890  0.95996888  0.37208075     1.03700
O588        O  0.08266091  0.97893727  0.39709293    -0.76800
O589        O  0.10337730  0.04989307  0.37455870    -0.76900
C590        C  0.12330437  0.08359229  0.36479925     1.03700
Cr591      Cr  0.19342477  0.07816094  0.36973738     1.93700
Cr592      Cr  0.16085324  0.99269671  0.37883400     1.93200
Cr593      Cr  0.12160649  0.03146033  0.41028217     1.39100
O594        O  0.15843821  0.03403647  0.38615412    -1.22000
O595        O  0.80792505  0.91791968  0.56631164    -0.84200
O596        O  0.82201276  0.98802760  0.54577411    -0.81300
C597        C  0.82597705  0.02067558  0.54645387     0.99200
O598        O  0.82800470  0.03644188  0.57345483    -0.81300
O599        O  0.75598242  0.99099052  0.59740204    -0.84000
C600        C  0.72750832  0.96093405  0.60766367     1.03800
O601        O  0.73153306  0.94064980  0.62837200    -0.76700
O602        O  0.75130193  0.90064457  0.58565928    -0.76900
C603        C  0.77241059  0.89683234  0.56531507     1.03700
O604        O  0.86081894  0.95280788  0.61682746    -0.84200
O605        O  0.88077352  0.02286249  0.59299057    -0.81300
C606        C  0.88661389  0.03937748  0.62005603     0.99200
O607        O  0.85908736  0.03682095  0.63624164    -0.81300
O608        O  0.78708367  0.99995987  0.66211059    -0.83900
C609        C  0.79225967  0.97963389  0.68179254     1.03700
O610        O  0.79102334  0.94973674  0.67194837    -0.76800
O611        O  0.80587794  0.90426683  0.63107655    -0.76900
C612        C  0.84170871  0.92036740  0.62927082     1.03700
Cr613      Cr  0.84030534  0.97035650  0.58239934     1.93700
Cr614      Cr  0.80723475  0.01293796  0.61684141     1.93200
Cr615      Cr  0.77229678  0.92707497  0.62810340     1.39100
O616        O  0.80646819  0.96991474  0.60908757    -1.22000
O617        O  0.85022675  0.76951059  0.41633908    -0.84200
O618        O  0.79212180  0.74750318  0.37166416    -0.81300
C619        C  0.76613039  0.74082301  0.39199872     0.99200
O620        O  0.76259667  0.76793010  0.40293118    -0.81300
O621        O  0.78501070  0.84060296  0.42557373    -0.84000
C622        C  0.79734856  0.83982054  0.45318628     1.03800
O623        O  0.82696985  0.83769880  0.45567216    -0.76700
O624        O  0.88572109  0.82597762  0.43816400    -0.76900
C625        C  0.87208300  0.79066567  0.43859237     1.03700
O626        O  0.90266051  0.82588395  0.37224063    -0.84200
O627        O  0.84340625  0.80960747  0.32980207    -0.81300
C628        C  0.81354351  0.80811151  0.31973621     0.99200
O629        O  0.78646270  0.79952693  0.33909103    -0.81300
O630        O  0.81899321  0.87265076  0.36420641    -0.83900
C631        C  0.84339681  0.90106623  0.38040772     1.03700
O632        O  0.85369681  0.89620794  0.40777537    -0.76800
O633        O  0.90765895  0.87951780  0.38753959    -0.76900
C634        C  0.92194942  0.86157882  0.37467622     1.03700
Cr635      Cr  0.84612506  0.79045070  0.37369497     1.93700
Cr636      Cr  0.79122776  0.82013852  0.38357871     1.93200
Cr637      Cr  0.86607344  0.85711098  0.42022896     1.39100
O638        O  0.83466365  0.82254018  0.39262228    -1.22000
O639        O  0.04078053  0.88414128  0.55367889    -0.84200
O640        O  0.96204303  0.84857410  0.55865585    -0.81300
C641        C  0.95285648  0.81514257  0.55085285     0.99200
O642        O  0.96370934  0.79753574  0.56796418    -0.81300
O643        O  0.99954629  0.78011267  0.61349409    -0.84000
C644        C  0.03376863  0.79260694  0.60467668     1.03800
O645        O  0.05816855  0.82722395  0.60775366    -0.76700
O646        O  0.08575899  0.90014164  0.58997024    -0.76900
C647        C  0.07534585  0.89856010  0.56071714     1.03700
O648        O  0.04909658  0.93458498  0.60536558    -0.84200
O649        O  0.97260014  0.89010878  0.61682375    -0.81300
C650        C  0.94035716  0.86216317  0.62335234     0.99200
O651        O  0.93322158  0.82832425  0.61788505    -0.81300
O652        O  0.97122194  0.81264229  0.66219684    -0.83900
C653        C  0.99863392  0.82367068  0.68118641     1.03700
O654        O  0.03253764  0.83996918  0.67050962    -0.76800
O655        O  0.05837564  0.91400008  0.65085537    -0.76900
C656        C  0.06244846  0.94114154  0.63374245     1.03700
Cr657      Cr  0.00647100  0.88675326  0.58544768     1.93700
Cr658      Cr  0.97021868  0.80820831  0.61511721     1.93200
Cr659      Cr  0.05500892  0.86875892  0.62866717     1.39100
O660        O  0.01054433  0.85435833  0.61027943    -1.22000
O661        O  0.92537340  0.84522897  0.93687126    -0.84200
O662        O  0.99189696  0.84829216  0.95207032    -0.81300
C663        C  0.02116834  0.84563310  0.94990926     0.99200
O664        O  0.03386218  0.84375652  0.92234639    -0.81300
O665        O  0.97745093  0.77180473  0.90353383    -0.84000
C666        C  0.94415121  0.74622908  0.89587450     1.03800
O667        O  0.92461256  0.75371906  0.87699964    -0.76700
O668        O  0.89720166  0.78608836  0.92021305    -0.76900
C669        C  0.89953552  0.81109693  0.93972513     1.03700
O670        O  0.96037542  0.89192036  0.88277728    -0.84200
O671        O  0.02945306  0.90223974  0.90088285    -0.81300
C672        C  0.04216820  0.90258519  0.87283592     0.99200
O673        O  0.03260645  0.87174902  0.85825435    -0.81300
O674        O  0.98356849  0.79799897  0.83817781    -0.83900
C675        C  0.96445006  0.80563420  0.81917302     1.03700
O676        O  0.93979667  0.81245600  0.83062943    -0.76800
O677        O  0.90614477  0.84052720  0.87261140    -0.76900
C678        C  0.92647050  0.87635436  0.87320265     1.03700
Cr679      Cr  0.97622424  0.86899628  0.91634558     1.93700
Cr680      Cr  0.00419734  0.82190800  0.88128815     1.93200
Cr681      Cr  0.92044362  0.80026260  0.87597548     1.39100
O682        O  0.96672402  0.83024796  0.89130822    -1.22000
O683        O  0.12014109  0.90510912  0.08483043    -0.84200
O684        O  0.17986820  0.94410162  0.12760426    -0.81300
C685        C  0.20611423  0.96483528  0.10788510     0.99200
O686        O  0.20846701  0.99476123  0.09699625    -0.81300
O687        O  0.18299937  0.04041513  0.07248789    -0.84000
C688        C  0.16912794  0.02435964  0.04565165     1.03800
O689        O  0.13948507  0.99180105  0.04523412    -0.76700
O690        O  0.08094092  0.92202118  0.06640074    -0.76900
C691        C  0.09516282  0.90116157  0.06488060     1.03700
O692        O  0.06881237  0.90930142  0.13097719    -0.84200
O693        O  0.12965963  0.95404502  0.17094569    -0.81300
C694        C  0.15917357  0.98359314  0.18059163     0.99200
O695        O  0.18515596  0.00399372  0.16080065    -0.81300
O696        O  0.15050984  0.04108756  0.13543095    -0.83900
C697        C  0.12565460  0.04322236  0.11903441     1.03700
O698        O  0.11653831  0.02743949  0.09169102    -0.76800
O699        O  0.06386460  0.95794804  0.11697526    -0.76900
C700        C  0.04987404  0.92591007  0.13019662     1.03700
Cr701      Cr  0.12556928  0.93136467  0.12731791     1.93700
Cr702      Cr  0.17887553  0.01708304  0.11594422     1.93200
Cr703      Cr  0.10263263  0.97470147  0.08196657     1.39100
O704        O  0.13575127  0.97418582  0.10831892    -1.22000
O705        O  0.15481906  0.08955143  0.92586132    -0.84200
O706        O  0.14104604  0.14525651  0.94588451    -0.81300
C707        C  0.14262633  0.17678564  0.94684670     0.99200
O708        O  0.14664974  0.19462238  0.92095497    -0.81300
O709        O  0.22002966  0.21738239  0.90233316    -0.84000
C710        C  0.24789707  0.21521960  0.89179200     1.03800
O711        O  0.24259169  0.19066449  0.87039855    -0.76700
O712        O  0.21431313  0.12854356  0.91185386    -0.76900
C713        C  0.18988166  0.10259913  0.92993897     1.03700
O714        O  0.10859074  0.07540086  0.87015412    -0.84200
O715        O  0.08980745  0.12731957  0.89258119    -0.81300
C716        C  0.09023381  0.14604229  0.86830166     0.99200
O717        O  0.12118221  0.17104826  0.85582527    -0.81300
O718        O  0.19530125  0.20036925  0.83549089    -0.83900
C719        C  0.18721271  0.17420512  0.81507521     1.03700
O720        O  0.18411365  0.14336109  0.82393988    -0.76800
O721        O  0.16387168  0.08073028  0.86250560    -0.76900
C722        C  0.12808737  0.06108625  0.86095960     1.03700
Cr723      Cr  0.12644442  0.11217837  0.90694635     1.93700
Cr724      Cr  0.17059451  0.19258615  0.87904047     1.93200
Cr725      Cr  0.19900521  0.13690993  0.86808805     1.39100
O726        O  0.16519448  0.14713810  0.88483765    -1.22000
O727        O  0.90568209  0.09256966  0.92869911    -0.84200
O728        O  0.84931179  0.02331496  0.95202933    -0.81300
C729        C  0.81975011  0.99082381  0.95310489     0.99200
O730        O  0.80405703  0.97381513  0.92699090    -0.81300
O731        O  0.77681096  0.01784173  0.90280763    -0.84000
C732        C  0.77807917  0.04710032  0.89167002     1.03800
O733        O  0.80296599  0.06717422  0.87077142    -0.76700
O734        O  0.86346841  0.10659167  0.91295343    -0.76900
C735        C  0.88907961  0.11103860  0.93249035     1.03700
O736        O  0.92011608  0.05507334  0.87745277    -0.84200
O737        O  0.87023749  0.98641017  0.90501488    -0.81300
C738        C  0.85798018  0.96806242  0.87895311     0.99200
O739        O  0.83262461  0.97006302  0.86324071    -0.81300
O740        O  0.79750064  0.00694097  0.83793126    -0.83900
C741        C  0.82206254  0.02738715  0.81698199     1.03700
O742        O  0.85189495  0.05742265  0.82581002    -0.76800
O743        O  0.91442510  0.10369596  0.86497308    -0.76900
C744        C  0.93376082  0.08744708  0.86507420     1.03700
Cr745      Cr  0.88375538  0.03930822  0.91392554     1.93700
Cr746      Cr  0.80566721  0.99523649  0.88303183     1.93200
Cr747      Cr  0.85751389  0.08070347  0.86982986     1.39100
O748        O  0.84895882  0.03843485  0.88880661    -1.22000
O749        O  0.08512236  0.22223528  0.08290237    -0.84200
O750        O  0.05724364  0.25378288  0.12711052    -0.81300
C751        C  0.03886324  0.26298634  0.10840661     0.99200
O752        O  0.00569931  0.23841883  0.09935894    -0.81300
O753        O  0.94747586  0.16718512  0.07863771    -0.84000
C754        C  0.95957690  0.16481517  0.05088223     1.03800
O755        O  0.98903129  0.16253048  0.04843456    -0.76700
O756        O  0.05489436  0.16412413  0.06333408    -0.76900
C757        C  0.08218725  0.19782397  0.06229251     1.03700
O758        O  0.07288631  0.16532782  0.12852401    -0.84200
O759        O  0.03832691  0.19104100  0.17113188    -0.81300
C760        C  0.01432525  0.19874950  0.18255352     0.99200
O761        O  0.99794532  0.20997158  0.16382796    -0.81300
O762        O  0.94825355  0.13756834  0.14215829    -0.83900
C763        C  0.93866331  0.10700860  0.12722276     1.03700
O764        O  0.95073523  0.10755591  0.09886868    -0.76800
O765        O  0.01882838  0.11498992  0.11595475    -0.76900
C766        C  0.05218932  0.12970074  0.12673832     1.03700
Cr767      Cr  0.05991968  0.20627690  0.12647096     1.93700
Cr768      Cr  0.97737725  0.18764441  0.12013873     1.93200
Cr769      Cr  0.00399075  0.14020519  0.08350777     1.39100
O770        O  0.01409920  0.17829854  0.10966711    -1.22000
O771        O  0.77081677  0.88502299  0.08719505    -0.84200
O772        O  0.73895874  0.82145320  0.12845089    -0.81300
C773        C  0.73455800  0.79631333  0.10813468     0.99200
O774        O  0.76262198  0.79360306  0.09899590    -0.81300
O775        O  0.83629867  0.81659598  0.08110284    -0.84000
C776        C  0.84061632  0.83411338  0.05499192     1.03800
O777        O  0.84223516  0.86568783  0.05531741    -0.76700
O778        O  0.83109242  0.92308170  0.07567511    -0.76900
C779        C  0.79670946  0.91150268  0.07031276     1.03700
O780        O  0.81918032  0.92990031  0.13869400    -0.84200
O781        O  0.79459116  0.86643495  0.17721519    -0.81300
C782        C  0.79255270  0.83603586  0.18623507     0.99200
O783        O  0.78681860  0.81074051  0.16562724    -0.81300
O784        O  0.86168682  0.84065585  0.14622200    -0.83900
C785        C  0.89269509  0.86505971  0.13328088     1.03700
O786        O  0.89285199  0.88259751  0.10838320    -0.76800
O787        O  0.87461616  0.93501688  0.13162747    -0.76900
C788        C  0.85491714  0.94928583  0.14053704     1.03700
Cr789      Cr  0.78323006  0.87454839  0.13190585     1.93700
Cr790      Cr  0.81205780  0.81871420  0.12260241     1.93200
Cr791      Cr  0.85706612  0.89865754  0.09452290     1.39100
O792        O  0.81750605  0.86403264  0.11637143    -1.22000
C793        C  0.85472322  0.01025663  0.13971821     0.24700
C794        C  0.87331851  0.99040543  0.14794288    -0.23400
C795        C  0.91146499  0.01131684  0.15754913     0.19600
C796        C  0.93171325  0.05082313  0.15511833     0.24600
C797        C  0.91446051  0.06986320  0.14216065    -0.23300
C798        C  0.87550992  0.04961234  0.13582321     0.19600
F799        F  0.85840229  0.06742831  0.12297207    -0.13300
F800        F  0.81730625  0.99142735  0.13198688    -0.15700
F801        F  0.96909591  0.07017298  0.16278978    -0.15700
F802        F  0.92976385  0.99349124  0.16752206    -0.13300
C803        C  0.82158334  0.99082919  0.01381030     0.24700
C804        C  0.80536317  0.97126641  0.98476590    -0.23400
C805        C  0.77830460  0.93199763  0.98633659     0.19600
C806        C  0.77074816  0.91236713  0.01578471     0.24600
C807        C  0.78997763  0.93158732  0.04403231    -0.23300
C808        C  0.81399433  0.97126428  0.04289452     0.19600
F809        F  0.83402914  0.99071305  0.06939171    -0.13300
F810        F  0.84738516  0.02856269  0.01393092    -0.15700
F811        F  0.74812734  0.87410504  0.01581685    -0.15700
F812        F  0.76155253  0.91183050  0.95902359    -0.13300
C813        C  0.95709212  0.17831535  0.99234541     0.24700
C814        C  0.93775048  0.16099871  0.02118910    -0.23400
C815        C  0.89844154  0.13488374  0.01993375     0.19600
C816        C  0.88008669  0.12261884  0.98989257     0.24600
C817        C  0.90071096  0.13654574  0.96087670    -0.23300
C818        C  0.93867596  0.16624789  0.96245827     0.19600
F819        F  0.95916765  0.18040034  0.93482495    -0.13300
F820        F  0.99465416  0.20482802  0.99293296    -0.15700
F821        F  0.84359530  0.09343579  0.98905223    -0.15700
F822        F  0.87887377  0.11774414  0.04737396    -0.13300
C823        C  0.14047830  0.17606693  0.00750158     0.24700
C824        C  0.13720435  0.19150847  0.97827341    -0.23400
C825        C  0.12495217  0.21809459  0.97951322     0.19600
C826        C  0.11155206  0.22498477  0.00873409     0.24600
C827        C  0.11076089  0.20585744  0.03698044    -0.23300
C828        C  0.12735512  0.18317224  0.03647969     0.19600
F829        F  0.12689311  0.16438072  0.06355581    -0.13300
F830        F  0.15394036  0.15190495  0.00781323    -0.15700
F831        F  0.09554204  0.24693293  0.00863232    -0.15700
F832        F  0.12264376  0.23480692  0.95209069    -0.13300
C833        C  0.02897491  0.10142893  0.84264224     0.24700
C834        C  0.05319764  0.13760085  0.85569162    -0.23400
C835        C  0.03814943  0.16043164  0.86461198     0.19600
C836        C  0.99875457  0.14559707  0.86383270     0.24600
C837        C  0.97409899  0.10753343  0.85466718    -0.23300
C838        C  0.98977508  0.08656813  0.84194828     0.19600
F839        F  0.96688236  0.05056179  0.83112390    -0.13300
F840        F  0.04302776  0.07913246  0.83340566    -0.15700
F841        F  0.98464990  0.16698572  0.87553621    -0.15700
F842        F  0.06105302  0.19540741  0.87750632    -0.13300
C843        C  0.99431425  0.92799082  0.15384835     0.24700
C844        C  0.00978068  0.90656505  0.14174702    -0.23400
C845        C  0.98509126  0.86750458  0.13600601     0.19600
C846        C  0.94552978  0.85177612  0.13737439     0.24600
C847        C  0.93024320  0.87456482  0.14566141    -0.23300
C848        C  0.95494139  0.91206860  0.15582936     0.19600
F849        F  0.94081523  0.93442159  0.16461145    -0.13300
F850        F  0.01726299  0.96497752  0.16207604    -0.15700
F851        F  0.92237503  0.81558907  0.12709148    -0.15700
F852        F  0.99901442  0.84537166  0.12597940    -0.13300
C853        C  0.17551221  0.02578860  0.98515738     0.24700
C854        C  0.18551861  0.04531342  0.01490418    -0.23400
C855        C  0.20769836  0.08540004  0.01454409     0.19600
C856        C  0.21469266  0.10521261  0.98530117     0.24600
C857        C  0.19992321  0.08528477  0.95620490    -0.23300
C858        C  0.18260063  0.04560834  0.95619306     0.19600
F859        F  0.16871639  0.02566961  0.92834093    -0.13300
F860        F  0.15640668  0.98732933  0.98413564    -0.15700
F861        F  0.23190490  0.14359423  0.98594072    -0.15700
F862        F  0.21957537  0.10559512  0.04259349    -0.13300
C863        C  0.06696984  0.04650726  0.12194806     0.24700
C864        C  0.10561141  0.06296356  0.13003809    -0.23400
C865        C  0.12457816  0.09965913  0.14331177     0.19600
C866        C  0.10630240  0.12089720  0.14489374     0.24600
C867        C  0.06857336  0.10533981  0.13370740    -0.23300
C868        C  0.04855384  0.06701631  0.12430876     0.19600
F869        F  0.01186624  0.04990844  0.11448183    -0.13300
F870        F  0.04734416  0.01111638  0.10910911    -0.15700
F871        F  0.12630608  0.15731719  0.15554606    -0.15700
F872        F  0.16158107  0.11611184  0.15195602    -0.13300
C873        C  0.87754570  0.78942635  0.99565074     0.24700
C874        C  0.87229118  0.80274835  0.96616810    -0.23400
C875        C  0.85060078  0.82042984  0.96557324     0.19600
C876        C  0.83792591  0.82848413  0.99443512     0.24600
C877        C  0.84665853  0.81877424  0.02435851    -0.23300
C878        C  0.86456220  0.79710552  0.02460383     0.19600
F879        F  0.87298638  0.78667501  0.05300455    -0.13300
F880        F  0.89905179  0.77295824  0.99682819    -0.15700
F881        F  0.81901552  0.84765792  0.99319303    -0.15700
F882        F  0.84506006  0.83333029  0.93718181    -0.13300
C883        C  0.87058045  0.88443399  0.85903345     0.24700
C884        C  0.90959604  0.90039458  0.86630727    -0.23400
C885        C  0.93148115  0.93977216  0.87167369     0.19600
C886        C  0.91452388  0.96171054  0.87289595     0.24600
C887        C  0.87521259  0.94545495  0.86846424    -0.23300
C888        C  0.85355141  0.90690411  0.86004754     0.19600
F889        F  0.81555337  0.89035360  0.85560804    -0.13300
F890        F  0.84835348  0.84675511  0.85295304    -0.15700
F891        F  0.93653525  0.99883112  0.88102959    -0.15700
F892        F  0.96905856  0.95711409  0.87853780    -0.13300
C893        C  0.08206965  0.86885110  0.98019038     0.24700
C894        C  0.04207397  0.84813678  0.97971953    -0.23400
C895        C  0.02215699  0.83501558  0.00909685     0.19600
C896        C  0.04141178  0.84706049  0.03846762     0.24600
C897        C  0.08073485  0.87264509  0.03893592    -0.23300
C898        C  0.10130651  0.88124258  0.00977949     0.19600
F899        F  0.13928224  0.90620843  0.00967184    -0.13300
F900        F  0.10226049  0.88116204  0.95218701    -0.15700
F901        F  0.02095932  0.83827266  0.06635367    -0.15700
F902        F  0.98368327  0.81336355  0.00944026    -0.13300
C903        C  0.10612244  0.95976980  0.86343273     0.24700
C904        C  0.06689640  0.93995132  0.85791135    -0.23400
C905        C  0.04999890  0.95977410  0.84593485     0.19600
C906        C  0.07064389  0.99939015  0.84413631     0.24600
C907        C  0.10910343  0.01983546  0.85304612    -0.23300
C908        C  0.12738612  0.99930000  0.85977303     0.19600
F909        F  0.16523866  0.01759442  0.86556596    -0.13300
F910        F  0.12323038  0.94133211  0.87493887    -0.15700
F911        F  0.05246217  0.01776068  0.83530765    -0.15700
F912        F  0.01259495  0.94091815  0.83839791    -0.13300
C913        C  0.95594483  0.81459677  0.72854130     0.24700
C914        C  0.98970383  0.81744505  0.71642593    -0.23400
C915        C  0.01379393  0.81384308  0.73820173     0.19600
C916        C  0.00493235  0.80861100  0.77137794     0.24600
C917        C  0.97186430  0.80722858  0.78362698    -0.23300
C918        C  0.94718500  0.80956669  0.76159667     0.19600
F919        F  0.91445960  0.80716745  0.77194158    -0.13300
F920        F  0.93156104  0.81771564  0.70850194    -0.15700
F921        F  0.02931903  0.80566610  0.79151005    -0.15700
F922        F  0.04568467  0.81484947  0.72737697    -0.13300
C923        C  0.81722164  0.81020692  0.22790402     0.24700
C924        C  0.79790981  0.82954068  0.22059103    -0.23400
C925        C  0.78452275  0.84240629  0.24620354     0.19600
C926        C  0.78966767  0.83536995  0.27839738     0.24600
C927        C  0.80919716  0.81618617  0.28561706    -0.23300
C928        C  0.82320901  0.80405995  0.26003884     0.19600
F929        F  0.84161771  0.78509755  0.26609763    -0.13300
F930        F  0.83087953  0.79758142  0.20385459    -0.15700
F931        F  0.77587059  0.84774860  0.30256885    -0.15700
F932        F  0.76549329  0.86076163  0.24010574    -0.13300
C933        C  0.86781594  0.77986103  0.49680132     0.24700
C934        C  0.88250101  0.77647512  0.46693055    -0.23400
C935        C  0.91720034  0.77717601  0.46656516     0.19600
C936        C  0.93921435  0.78661652  0.49484949     0.24600
C937        C  0.92689686  0.79612261  0.52340647    -0.23300
C938        C  0.89013329  0.79047284  0.52467453     0.19600
F939        F  0.87685351  0.79777299  0.55238895    -0.13300
F940        F  0.83389138  0.77810504  0.49792308    -0.15700
F941        F  0.97396606  0.79008176  0.49352541    -0.15700
F942        F  0.93162334  0.77298927  0.43814550    -0.13300
C943        C  0.82702961  0.02935894  0.72443518     0.24700
C944        C  0.80005409  0.99156527  0.71629723    -0.23400
C945        C  0.78097668  0.96568220  0.74130553     0.19600
C946        C  0.78794144  0.97746015  0.77380253     0.24600
C947        C  0.81487093  0.01541862  0.78216819    -0.23300
C948        C  0.83470192  0.04106728  0.75695783     0.19600
F949        F  0.86128278  0.07762962  0.76363891    -0.13300
F950        F  0.84674746  0.05489249  0.70082272    -0.15700
F951        F  0.76852915  0.95130838  0.79708778    -0.15700
F952        F  0.75479649  0.92908804  0.73426630    -0.13300
C953        C  0.76388551  0.86951967  0.48042144     0.24700
C954        C  0.77868970  0.84514497  0.48204172    -0.23400
C955        C  0.77752614  0.82839674  0.51182668     0.19600
C956        C  0.76689023  0.83987026  0.54006849     0.24600
C957        C  0.75802250  0.86872159  0.53901193    -0.23300
C958        C  0.75349958  0.88105345  0.50876405     0.19600
F959        F  0.74442436  0.90851671  0.50705943    -0.13300
F960        F  0.76338654  0.88553697  0.45194074    -0.15700
F961        F  0.76947320  0.82598495  0.56894616    -0.15700
F962        F  0.78829977  0.80229342  0.51389031    -0.13300
C963        C  0.89881694  0.92136050  0.65044987     0.24700
C964        C  0.86183853  0.90033309  0.63837193    -0.23400
C965        C  0.84784046  0.86229712  0.62917760     0.19600
C966        C  0.87241711  0.84780659  0.62696217     0.24600
C967        C  0.91105900  0.87103619  0.63466405    -0.23300
C968        C  0.92306304  0.90688460  0.64874123     0.19600
F969        F  0.95926979  0.92920614  0.65892949    -0.13300
F970        F  0.91217243  0.95689448  0.66235627    -0.15700
F971        F  0.85913960  0.81246781  0.61471573    -0.15700
F972        F  0.81129351  0.84017882  0.61979023    -0.13300
C973        C  0.18618127  0.04494154  0.25605247     0.24700
C974        C  0.17376525  0.01771763  0.28064091    -0.23400
C975        C  0.15580148  0.97900717  0.27205861     0.19600
C976        C  0.15065101  0.96778509  0.23955485     0.24600
C977        C  0.16391746  0.99502137  0.21500197    -0.23300
C978        C  0.18174557  0.03372243  0.22350432     0.19600
F979        F  0.19423140  0.06072965  0.20025464    -0.13300
F980        F  0.20327260  0.08241049  0.26346566    -0.15700
F981        F  0.13351390  0.93031865  0.23211670    -0.15700
F982        F  0.14245621  0.95181483  0.29518405    -0.13300
C983        C  0.13935001  0.97916446  0.50793118     0.24700
C984        C  0.13063429  0.96075132  0.47762435    -0.23400
C985        C  0.11210798  0.92086052  0.47651375     0.19600
C986        C  0.09793986  0.89990490  0.50486124     0.24600
C987        C  0.10287936  0.91839004  0.53471238    -0.23300
C988        C  0.12572701  0.95802915  0.53633488     0.19600
F989        F  0.13075359  0.97654501  0.56488252    -0.13300
F990        F  0.15883763  0.01758690  0.50998846    -0.15700
F991        F  0.07608844  0.86158443  0.50279269    -0.15700
F992        F  0.10415498  0.90189210  0.44782295    -0.13300
C993        C  0.01807595  0.94163742  0.34838399     0.24700
C994        C  0.04215725  0.93044816  0.36186793    -0.23400
C995        C  0.02633246  0.89354310  0.37398153     0.19600
C996        C  0.98677878  0.86943941  0.37524005     0.24600
C997        C  0.96259443  0.88239660  0.36516873    -0.23300
C998        C  0.97859935  0.91787247  0.35005705     0.19600
F999        F  0.95601205  0.93014768  0.33811859    -0.13300
F1000       F  0.03284028  0.97683125  0.33584675    -0.15700
F1001       F  0.97222419  0.83497015  0.38930545    -0.15700
F1002       F  0.04899581  0.88225343  0.38754020    -0.13300
C1003       C  0.14498488  0.15344341  0.76693721     0.24700
C1004       C  0.17974518  0.17958795  0.78135323    -0.23400
C1005       C  0.20535467  0.21252864  0.76449908     0.19600
C1006       C  0.19705781  0.21847609  0.73309234     0.24600
C1007       C  0.16257204  0.19208329  0.71844100    -0.23300
C1008       C  0.13625642  0.15984841  0.73580296     0.19600
F1009       F  0.10283860  0.13380594  0.72211346    -0.13300
F1010       F  0.11914376  0.12215988  0.78334809    -0.15700
F1011       F  0.22267840  0.25006980  0.71691410    -0.15700
F1012       F  0.23877182  0.23849543  0.77819482    -0.13300
C1013       C  0.17892841  0.16667953  0.49215633     0.24700
C1014       C  0.18681869  0.15401762  0.52090557    -0.23400
C1015       C  0.20589219  0.13356895  0.51904905     0.19600
C1016       C  0.21187033  0.12139010  0.48885530     0.24600
C1017       C  0.19941532  0.13011231  0.46041815    -0.23300
C1018       C  0.18530898  0.15490334  0.46219118     0.19600
F1019       F  0.17319676  0.16380306  0.43502421    -0.13300
F1020       F  0.16204094  0.18783992  0.49308167    -0.15700
F1021       F  0.22502176  0.09700362  0.48778900    -0.15700
F1022       F  0.21461115  0.12155049  0.54640175    -0.13300
C1023       C  0.94312254  0.09771167  0.64362711     0.24700
C1024       C  0.92612137  0.06047696  0.63162011    -0.23400
C1025       C  0.94865738  0.04414783  0.62642424     0.19600
C1026       C  0.98760001  0.06506351  0.63082405     0.24600
C1027       C  0.00566838  0.10382658  0.63895934    -0.23300
C1028       C  0.98282813  0.11950017  0.64697568     0.19600
F1029       F  0.99891158  0.15638418  0.65609841    -0.13300
F1030       F  0.92188128  0.11398448  0.64924189    -0.15700
F1031       F  0.00766527  0.04778762  0.62394778    -0.15700
F1032       F  0.93338838  0.00837195  0.61460937    -0.13300
C1033       C  0.08547170  0.04007407  0.65509077     0.24700
C1034       C  0.12249333  0.06147368  0.64243036    -0.23400
C1035       C  0.14232805  0.04274491  0.63486169     0.19600
C1036       C  0.12395320  0.00294886  0.63659838     0.24600
C1037       C  0.08515757  0.98129367  0.64474840    -0.23300
C1038       C  0.06684750  0.00035472  0.65588511     0.19600
F1039       F  0.03006681  0.98047907  0.66541657    -0.13300
F1040       F  0.06616910  0.05748738  0.66413523    -0.15700
F1041       F  0.14319806  0.98536658  0.62789709    -0.15700
F1042       F  0.17833354  0.06262897  0.62315649    -0.13300
C1043       C  0.99631994  0.16037601  0.23338891     0.24700
C1044       C  0.00404907  0.19372208  0.21741430    -0.23400
C1045       C  0.99822215  0.22040747  0.23415344     0.19600
C1046       C  0.98546337  0.21414361  0.26639710     0.24600
C1047       C  0.97709691  0.18049923  0.28216824    -0.23300
C1048       C  0.98267533  0.15369238  0.26537357     0.19600
F1049       F  0.97580004  0.12139924  0.28025032    -0.13300
F1050       F  0.00055218  0.13355116  0.21760082    -0.15700
F1051       F  0.98044398  0.24058007  0.28198697    -0.15700
F1052       F  0.00515284  0.25272735  0.21930407    -0.13300
C1053       C  0.86557729  0.10269367  0.48745955     0.24700
C1054       C  0.85996911  0.08349961  0.45788449    -0.23400
C1055       C  0.83636478  0.04390229  0.45701046     0.19600
C1056       C  0.82253695  0.02335236  0.48573710     0.24600
C1057       C  0.83210225  0.04216988  0.51591089    -0.23300
C1058       C  0.85155405  0.08224716  0.51630659     0.19600
F1059       F  0.86031058  0.10179944  0.54473046    -0.13300
F1060       F  0.88836408  0.14097017  0.48887285    -0.15700
F1061       F  0.80186711  0.98495387  0.48404843    -0.15700
F1062       F  0.82995846  0.02488490  0.42845859    -0.13300
C1063       C  0.07041434  0.21713609  0.48258979     0.24700
C1064       C  0.03037477  0.19591145  0.48174926    -0.23400
C1065       C  0.01026161  0.18226833  0.51110737     0.19600
C1066       C  0.02956855  0.18608727  0.53989430     0.24600
C1067       C  0.06928277  0.20373118  0.54003325    -0.23300
C1068       C  0.08972346  0.22083622  0.51159772     0.19600
F1069       F  0.12809754  0.23738399  0.51110254    -0.13300
F1070       F  0.09088791  0.23084365  0.45486384    -0.15700
F1071       F  0.00927829  0.16944932  0.56719928    -0.15700
F1072       F  0.97171043  0.16271590  0.51160324    -0.13300
C1073       C  0.91945698  0.00317096  0.36936020     0.24700
C1074       C  0.89873486  0.02074337  0.36127762    -0.23400
C1075       C  0.85971864  0.99717747  0.35397723     0.19600
C1076       C  0.84160246  0.95740290  0.35728505     0.24600
C1077       C  0.86198751  0.94078947  0.36865612    -0.23300
C1078       C  0.90126007  0.96418900  0.37364945     0.19600
F1079       F  0.92213125  0.94970810  0.38502832    -0.13300
F1080       F  0.95712159  0.02376356  0.37605625    -0.15700
F1081       F  0.80372418  0.93565143  0.35204244    -0.15700
F1082       F  0.83860478  0.01260966  0.34546089    -0.13300
C1083       C  0.04510732  0.10367936  0.34708211     0.24700
C1084       C  0.06114931  0.14094168  0.35871300    -0.23400
C1085       C  0.10024245  0.16193623  0.36486527     0.19600
C1086       C  0.12201062  0.14435100  0.36288140     0.24600
C1087       C  0.10438292  0.10510482  0.35624025    -0.23300
C1088       C  0.06619771  0.08562322  0.34651621     0.19600
F1089       F  0.04846842  0.04835859  0.33848020    -0.13300
F1090       F  0.00793043  0.08368066  0.33882903    -0.15700
F1091       F  0.15938663  0.16486209  0.37050793    -0.15700
F1092       F  0.11657710  0.19832199  0.37551054    -0.13300
C1093       C  0.45096829  0.56501709  0.16924159     0.24700
C1094       C  0.45478328  0.58304826  0.19924034    -0.23400
C1095       C  0.47519527  0.62281461  0.20072609     0.19600
C1096       C  0.48674586  0.64403581  0.17223581     0.24600
C1097       C  0.47844971  0.62570098  0.14188188    -0.23300
C1098       C  0.46312350  0.58618068  0.14073727     0.19600
F1099       F  0.45591623  0.56746784  0.11195929    -0.13300
F1100       F  0.43121432  0.52660510  0.16718695    -0.15700
F1101       F  0.50332388  0.68231153  0.17430306    -0.15700
F1102       F  0.47888422  0.64097422  0.22927307    -0.13300
C1103       C  0.62838909  0.72874061  0.10162242     0.24700
C1104       C  0.62143460  0.73621571  0.06994556    -0.23400
C1105       C  0.65260795  0.76035228  0.05016905     0.19600
C1106       C  0.68970842  0.77757657  0.06209195     0.24600
C1107       C  0.69644147  0.77174860  0.09418031    -0.23300
C1108       C  0.66556430  0.74688049  0.11378953     0.19600
F1109       F  0.67134072  0.74105679  0.14501328    -0.13300
F1110       F  0.59907052  0.70583078  0.12150076    -0.15700
F1111       F  0.71900520  0.80196014  0.04291270    -0.15700
F1112       F  0.64712903  0.76795283  0.01941592    -0.13300
C1113       C  0.28729542  0.49233425  0.12111418     0.24700
C1114       C  0.24755108  0.46927482  0.11908334    -0.23400
C1115       C  0.22722487  0.44686259  0.14578593     0.19600
C1116       C  0.24607658  0.45065994  0.17514284     0.24600
C1117       C  0.28521747  0.47684267  0.17776511    -0.23300
C1118       C  0.30592121  0.49595946  0.15011503     0.19600
F1119       F  0.34385896  0.52091245  0.15199688    -0.13300
F1120       F  0.30769268  0.51482985  0.09602792    -0.15700
F1121       F  0.22555830  0.43215794  0.20180121    -0.15700
F1122       F  0.18881437  0.42510215  0.14471384    -0.13300
C1123       C  0.36833552  0.61595725  0.00640495     0.24700
C1124       C  0.38848977  0.59976051  0.01916224    -0.23400
C1125       C  0.36873146  0.56120615  0.02691059     0.19600
C1126       C  0.32909705  0.54001130  0.02451845     0.24600
C1127       C  0.30839591  0.55789158  0.01678295    -0.23300
C1128       C  0.32853791  0.59560658  0.00610843     0.19600
F1129       F  0.30979252  0.61330734  0.99690567    -0.13300
F1130       F  0.38724396  0.65257449  0.99670091    -0.15700
F1131       F  0.31098553  0.50290866  0.03298395    -0.15700
F1132       F  0.38744422  0.54498629  0.03969743    -0.13300
C1133       C  0.11518703  0.35800021  0.07678992     0.24700
C1134       C  0.09538042  0.37707999  0.07105717    -0.23400
C1135       C  0.05659838  0.35899419  0.07942103     0.19600
C1136       C  0.03769364  0.32171843  0.09156861     0.24600
C1137       C  0.05767864  0.30265000  0.09667783    -0.23300
C1138       C  0.09678063  0.32163763  0.08976890     0.19600
F1139       F  0.11725722  0.30448720  0.09454753    -0.13300
F1140       F  0.15283447  0.37470215  0.07007759    -0.15700
F1141       F  0.00012684  0.30452552  0.09876838    -0.15700
F1142       F  0.03681282  0.37687751  0.07496679    -0.13300
C1143       C  0.25866644  0.61453006  0.28199602     0.24700
C1144       C  0.21962920  0.59109323  0.28830801    -0.23400
C1145       C  0.20535565  0.55220757  0.29421695     0.19600
C1146       C  0.22926913  0.53697623  0.29203667     0.24600
C1147       C  0.26789300  0.56033120  0.28408018    -0.23300
C1148       C  0.28229729  0.59954960  0.27999917     0.19600
F1149       F  0.31926735  0.62386224  0.27225650    -0.13300
F1150       F  0.27424416  0.65206449  0.27587895    -0.15700
F1151       F  0.21440170  0.49934185  0.29702781    -0.15700
F1152       F  0.16800348  0.52851932  0.30089074    -0.13300
C1153       C  0.10268977  0.55623710  0.16719438     0.24700
C1154       C  0.11572188  0.55128932  0.19694659    -0.23400
C1155       C  0.13389841  0.53010026  0.19812867     0.19600
C1156       C  0.14257077  0.51747856  0.16957327     0.24600
C1157       C  0.13279298  0.52559947  0.13942556    -0.23300
C1158       C  0.11071431  0.54304081  0.13858627     0.19600
F1159       F  0.10035723  0.55097846  0.10991423    -0.13300
F1160       F  0.08628822  0.57776204  0.16542788    -0.15700
F1161       F  0.16252217  0.49939010  0.17132114    -0.15700
F1162       F  0.14712792  0.52547706  0.22673022    -0.13300
C1163       C  0.31319885  0.79838175  0.30935557     0.24700
C1164       C  0.33210300  0.77809176  0.31466450    -0.23400
C1165       C  0.31013212  0.73919009  0.32145571     0.19600
C1166       C  0.27051416  0.72038618  0.31910656     0.24600
C1167       C  0.25252658  0.73974021  0.30838293    -0.23300
C1168       C  0.27383040  0.77909772  0.30518890     0.19600
F1169       F  0.25694935  0.79843600  0.29538378    -0.13300
F1170       F  0.33294535  0.83645851  0.30487765    -0.15700
F1171       F  0.24992457  0.68271832  0.32520830    -0.15700
F1172       F  0.32696975  0.71899909  0.32867771    -0.13300
C1173       C  0.49176604  0.82063240  0.15952769     0.24700
C1174       C  0.50559506  0.81378244  0.18814429    -0.23400
C1175       C  0.53210497  0.80152246  0.18573399     0.19600
C1176       C  0.54059738  0.79163075  0.15552662     0.24600
C1177       C  0.52289247  0.79404388  0.12751771    -0.23300
C1178       C  0.50025509  0.81071604  0.12951255     0.19600
F1179       F  0.48284750  0.81337314  0.10265010    -0.13300
F1180       F  0.46807803  0.83469030  0.16067671    -0.15700
F1181       F  0.56218446  0.77522669  0.15418368    -0.15700
F1182       F  0.54695333  0.79552537  0.21273540    -0.13300
C1183       C  0.46666927  0.67252274  0.30258754     0.24700
C1184       C  0.42882193  0.64568017  0.31048250    -0.23400
C1185       C  0.40466761  0.65843886  0.32133314     0.19600
C1186       C  0.41683169  0.69713625  0.32067932     0.24600
C1187       C  0.45344093  0.72368427  0.30943804    -0.23300
C1188       C  0.47891342  0.71132883  0.30194357     0.19600
F1189       F  0.51405901  0.73615841  0.29030032    -0.13300
F1190       F  0.49063085  0.66080779  0.29239995    -0.15700
F1191       F  0.39164555  0.70833859  0.32802106    -0.15700
F1192       F  0.36795233  0.63310555  0.32896202    -0.13300
C1193       C  0.24139925  0.95228878  0.06402893     0.24700
C1194       C  0.23285605  0.95236680  0.09714578    -0.23400
C1195       C  0.24522033  0.93495336  0.11920463     0.19600
C1196       C  0.26416756  0.91644044  0.10826637     0.24600
C1197       C  0.27005401  0.91387049  0.07495215    -0.23300
C1198       C  0.25936958  0.93278081  0.05301145     0.19600
F1199       F  0.26518716  0.93123056  0.02073550    -0.13300
F1200       F  0.22951876  0.96833863  0.04201022    -0.15700
F1201       F  0.27398352  0.89836851  0.13004735    -0.15700
F1202       F  0.23751736  0.93449524  0.15132341    -0.13300
C1203       C  0.17923022  0.66465774  0.03351620     0.24700
C1204       C  0.21720024  0.68967101  0.02407399    -0.23400
C1205       C  0.23717860  0.67421355  0.00883099     0.19600
C1206       C  0.22178250  0.63489089  0.00728272     0.24600
C1207       C  0.18582805  0.60998419  0.02052176    -0.23300
C1208       C  0.16381145  0.62508328  0.03208533     0.19600
F1209       F  0.12893276  0.60177213  0.04502686    -0.13300
F1210       F  0.15827867  0.67835144  0.04697306    -0.15700
F1211       F  0.24357342  0.62116602  0.99569245    -0.15700
F1212       F  0.27259891  0.69730965  0.99693180    -0.13300
C1213       C  0.16053001  0.72729332  0.13030512     0.24700
C1214       C  0.19088533  0.76483027  0.13066890    -0.23400
C1215       C  0.20273409  0.78428489  0.16042271     0.19600
C1216       C  0.18775585  0.76478110  0.18960466     0.24600
C1217       C  0.16116734  0.72560619  0.18904401    -0.23300
C1218       C  0.14579596  0.70776617  0.15924232     0.19600
F1219       F  0.11923159  0.67028176  0.15805024    -0.13300
F1220       F  0.14857446  0.70806856  0.10187238    -0.15700
F1221       F  0.20290164  0.78289784  0.21808598    -0.15700
F1222       F  0.23221945  0.82058740  0.16135835    -0.13300
C1223       C  0.39734895  0.88303364  0.15713323     0.24700
C1224       C  0.35767704  0.85794261  0.15494714    -0.23400
C1225       C  0.33684834  0.84266161  0.18368778     0.19600
C1226       C  0.35551634  0.84807472  0.21298632     0.24600
C1227       C  0.39532195  0.86896221  0.21438433    -0.23300
C1228       C  0.41603679  0.88847039  0.18680385     0.19600
F1229       F  0.45454309  0.90898416  0.18769820    -0.13300
F1230       F  0.41854729  0.89949993  0.13022671    -0.15700
F1231       F  0.33481511  0.82903353  0.23937311    -0.15700
F1232       F  0.29852172  0.81976982  0.18321896    -0.13300
C1233       C  0.42275761  0.81463620  0.02904610     0.24700
C1234       C  0.38354326  0.79178232  0.03439931    -0.23400
C1235       C  0.36687533  0.75225797  0.03307420     0.19600
C1236       C  0.38891907  0.73559778  0.02925743     0.24600
C1237       C  0.42873662  0.75808768  0.02721479    -0.23300
C1238       C  0.44528949  0.79793135  0.02542857     0.19600
F1239       F  0.48348364  0.82093862  0.02285376    -0.13300
F1240       F  0.43967529  0.85294985  0.03045385    -0.15700
F1241       F  0.37106391  0.69726482  0.03051812    -0.15700
F1242       F  0.32911016  0.72937661  0.03816589    -0.13300
C1243       C  0.47649366  0.84618109  0.44421376     0.24700
C1244       C  0.50368810  0.83631265  0.45185885    -0.23400
C1245       C  0.52517312  0.83264870  0.42708307     0.19600
C1246       C  0.52033323  0.83993998  0.39501102     0.24600
C1247       C  0.49323735  0.85020666  0.38725872    -0.23300
C1248       C  0.47103872  0.85273133  0.41221399     0.19600
F1249       F  0.44441044  0.86212595  0.40582968    -0.13300
F1250       F  0.45479498  0.84910559  0.46778495    -0.15700
F1251       F  0.54182000  0.83639072  0.37157179    -0.15700
F1252       F  0.55164644  0.82322813  0.43406747    -0.13300
C1253       C  0.65821087  0.93706556  0.61498548     0.24700
C1254       C  0.68941673  0.94775296  0.59430573    -0.23400
C1255       C  0.68321259  0.94050433  0.56088083     0.19600
C1256       C  0.64617622  0.92027626  0.54869405     0.24600
C1257       C  0.61476100  0.90811179  0.56960982    -0.23300
C1258       C  0.62120517  0.91801062  0.60267405     0.19600
F1259       F  0.59157239  0.90659758  0.62354507    -0.13300
F1260       F  0.66355785  0.94397682  0.64730544    -0.15700
F1261       F  0.64099003  0.91145381  0.51662813    -0.15700
F1262       F  0.71292748  0.95044340  0.54038625    -0.13300
C1263       C  0.49840507  0.69422449  0.89257301     0.24700
C1264       C  0.50196108  0.66338739  0.88197959    -0.23400
C1265       C  0.51404856  0.64598514  0.90392935     0.19600
C1266       C  0.52241179  0.65916932  0.93601129     0.24600
C1267       C  0.51812420  0.68969323  0.94689183    -0.23300
C1268       C  0.50633891  0.70720376  0.92454214     0.19600
F1269       F  0.50235034  0.73694466  0.93345839    -0.13300
F1270       F  0.48707877  0.71194680  0.87175703    -0.15700
F1271       F  0.53492862  0.64203744  0.95626559    -0.15700
F1272       F  0.51929275  0.61732248  0.89401476    -0.13300
C1273       C  0.55410412  0.78123748  0.65724949     0.24700
C1274       C  0.54367284  0.76009719  0.62835793    -0.23400
C1275       C  0.53364461  0.72183593  0.62898713     0.19600
C1276       C  0.52963265  0.70381925  0.65853705     0.24600
C1277       C  0.53498189  0.72381893  0.68759685    -0.23300
C1278       C  0.54923235  0.76300662  0.68687531     0.19600
F1279       F  0.55434099  0.78263025  0.71490133    -0.13300
F1280       F  0.56355933  0.81812854  0.65711113    -0.15700
F1281       F  0.51585710  0.66589483  0.65891632    -0.15700
F1282       F  0.52281426  0.70077592  0.60136808    -0.13300
C1283       C  0.12530582  0.63144111  0.43754833     0.24700
C1284       C  0.14178976  0.66962972  0.44829599    -0.23400
C1285       C  0.15482217  0.69821954  0.42478211     0.19600
C1286       C  0.14960502  0.68880825  0.39171374     0.24600
C1287       C  0.13207102  0.65070738  0.38134188    -0.23300
C1288       C  0.12078215  0.62228101  0.40453269     0.19600
F1289       F  0.10412062  0.58535691  0.39529158    -0.13300
F1290       F  0.11342046  0.60250468  0.45887883    -0.15700
F1291       F  0.16240344  0.71716669  0.36974783    -0.15700
F1292       F  0.17257075  0.73530157  0.43363113    -0.13300
C1293       C  0.32111521  0.78603078  0.52017669     0.24700
C1294       C  0.29703300  0.74819302  0.52986033    -0.23400
C1295       C  0.31306170  0.72660123  0.53896595     0.23200
C1296       C  0.35205658  0.74337585  0.54224860     0.24600
C1297       C  0.37634541  0.78210460  0.53572176    -0.23300
C1298       C  0.36084106  0.80293023  0.52286323     0.19600
F1299       F  0.38359313  0.84027250  0.51606370    -0.13300
F1300       F  0.30622203  0.80753173  0.51137073    -0.15700
F1301       F  0.36577957  0.72217711  0.55448448    -0.15700
F1302       F  0.29059075  0.68986951  0.54791875    -0.13300
C1303       C  0.09289524  0.76542872  0.55234535     0.24700
C1304       C  0.08411015  0.72992980  0.56438894    -0.23400
C1305       C  0.05449879  0.71236112  0.58748853     0.19600
C1306       C  0.03602115  0.73126737  0.59973141     0.24600
C1307       C  0.04704365  0.76809497  0.58914892    -0.23300
C1308       C  0.07459583  0.78400185  0.56431558     0.19600
F1309       F  0.08466850  0.81844327  0.55194597    -0.13300
F1310       F  0.12027026  0.78288902  0.52936042    -0.15700
F1311       F  0.00923098  0.71461169  0.62324007    -0.15700
F1312       F  0.04532403  0.67818585  0.59987481    -0.13300
C1313       C  0.29810802  0.83885468  0.89635081     0.24700
C1314       C  0.33705189  0.85988200  0.88833070    -0.23400
C1315       C  0.36370050  0.87583114  0.91339037     0.19600
C1316       C  0.35168512  0.87107740  0.94580567     0.24600
C1317       C  0.31273662  0.84928522  0.95387395    -0.23300
C1318       C  0.28612741  0.83322530  0.92874803     0.19600
F1319       F  0.24840751  0.81251329  0.93547374    -0.13300
F1320       F  0.27149038  0.82280740  0.87278808    -0.15700
F1321       F  0.37836219  0.88713422  0.96933845    -0.15700
F1322       F  0.40135905  0.89667357  0.90649503    -0.13300
C1323       C  0.47563580  0.86295280  0.70950648     0.24700
C1324       C  0.45167730  0.87814289  0.71030690    -0.23400
C1325       C  0.44341840  0.88968706  0.68117708     0.19600
C1326       C  0.45506238  0.88177383  0.65150628     0.24600
C1327       C  0.47458323  0.86159067  0.65074627    -0.23300
C1328       C  0.48698319  0.85472234  0.68009224     0.19600
F1329       F  0.50784715  0.83753380  0.68045377    -0.13300
F1330       F  0.48433995  0.85181004  0.73723021    -0.15700
F1331       F  0.44384315  0.89043649  0.62365864    -0.15700
F1332       F  0.42005212  0.90410194  0.68118745    -0.13300
C1333       C  0.48220986  0.78318979  0.80002213     0.24700
C1334       C  0.46092386  0.74424546  0.80659773    -0.23400
C1335       C  0.42602469  0.72998382  0.82318218     0.19600
C1336       C  0.40912291  0.75196297  0.82669871     0.24600
C1337       C  0.42771717  0.78929624  0.81535075    -0.23300
C1338       C  0.46603291  0.80591317  0.80540571     0.19600
F1339       F  0.48666807  0.84331012  0.79824048    -0.13300
F1340       F  0.51680325  0.79841422  0.78557602    -0.15700
F1341       F  0.37354774  0.73594120  0.83927107    -0.15700
F1342       F  0.40658407  0.69343659  0.83328774    -0.13300
C1343       C  0.29563152  0.81421344  0.66099373     0.24700
C1344       C  0.27884787  0.80508113  0.69199201    -0.23400
C1345       C  0.23896583  0.78343895  0.69450795     0.19600
C1346       C  0.21666261  0.76855703  0.66682390     0.24600
C1347       C  0.23353491  0.77536137  0.63599486    -0.23300
C1348       C  0.27307555  0.79977269  0.63314578     0.19600
F1349       F  0.29025474  0.80663434  0.60366285    -0.13300
F1350       F  0.33390608  0.83588910  0.65770136    -0.15700
F1351       F  0.17862017  0.74511489  0.67026614    -0.15700
F1352       F  0.22158669  0.77379150  0.72393032    -0.13300
C1353       C  0.16603905  0.52057329  0.89632916     0.24700
C1354       C  0.13299290  0.49368737  0.88015700    -0.23400
C1355       C  0.10708013  0.46001515  0.89602713     0.19600
C1356       C  0.11403758  0.45335772  0.92771794     0.24600
C1357       C  0.14764655  0.47973135  0.94355704    -0.23300
C1358       C  0.17354565  0.51341862  0.92766154     0.19600
F1359       F  0.20550058  0.53995636  0.94294555    -0.13300
F1360       F  0.19157477  0.55323712  0.88140470    -0.15700
F1361       F  0.08822324  0.42094809  0.94279395    -0.15700
F1362       F  0.07477479  0.43386323  0.88093083    -0.13300
C1363       C  0.10463946  0.61040978  0.70240102     0.24700
C1364       C  0.09616091  0.57264485  0.70332634    -0.23400
C1365       C  0.08719776  0.55155759  0.67442247     0.19600
C1366       C  0.09212480  0.56954821  0.64467064     0.24600
C1367       C  0.10539951  0.60850920  0.64375451    -0.23300
C1368       C  0.10913318  0.62828591  0.67266939     0.19600
F1369       F  0.12160583  0.66593141  0.67212804    -0.13300
F1370       F  0.11332086  0.63123962  0.73008727    -0.15700
F1371       F  0.08799533  0.55001798  0.61676307    -0.15700
F1372       F  0.07906428  0.51510756  0.67475010    -0.13300
C1373       C  0.23695883  0.66377084  0.82176239     0.24700
C1374       C  0.20075884  0.64858678  0.80801912    -0.23400
C1375       C  0.18775730  0.67337259  0.80011159     0.19600
C1376       C  0.21260518  0.71279034  0.80151885     0.24600
C1377       C  0.25039294  0.72766924  0.81125194    -0.23300
C1378       C  0.26161112  0.70297051  0.82318271     0.19600
F1379       F  0.29778725  0.71678444  0.83327713    -0.13300
F1380       F  0.24939015  0.64057642  0.83178033    -0.15700
F1381       F  0.20110495  0.73613451  0.78990541    -0.15700
F1382       F  0.15253746  0.65964084  0.78770434    -0.13300
C1383       C  0.27960252  0.52869178  0.80622210     0.24700
C1384       C  0.26401762  0.55079325  0.79681461    -0.23400
C1385       C  0.28844244  0.59010929  0.79309921     0.19600
C1386       C  0.32756445  0.60655520  0.79615132     0.24600
C1387       C  0.34361006  0.58423347  0.80270507    -0.23300
C1388       C  0.31932468  0.54535438  0.80903582     0.19600
F1389       F  0.33412186  0.52292033  0.81451516    -0.13300
F1390       F  0.25692853  0.49061793  0.80933681    -0.15700
F1391       F  0.35015818  0.64401271  0.78956707    -0.15700
F1392       F  0.27469585  0.61245992  0.78387788    -0.13300
C1393       C  0.35311535  0.48789357  0.40116031     0.24700
C1394       C  0.32650611  0.48206342  0.37709287    -0.23400
C1395       C  0.28817325  0.46712072  0.38668272     0.19600
C1396       C  0.27741546  0.46066543  0.41929055     0.24600
C1397       C  0.30422542  0.46830875  0.44348527    -0.23300
C1398       C  0.34214235  0.48102182  0.43396243     0.19600
F1399       F  0.36905843  0.48837543  0.45645623    -0.13300
F1400       F  0.39003646  0.50120019  0.39321913    -0.15700
F1401       F  0.24038194  0.44688760  0.42710596    -0.15700
F1402       F  0.26065675  0.45888146  0.36456146    -0.13300
C1403       C  0.23521528  0.58246847  0.50512375     0.24700
C1404       C  0.21617527  0.54453319  0.51500985    -0.23400
C1405       C  0.17770375  0.52779581  0.52456184     0.19600
C1406       C  0.16159440  0.55051997  0.53064368     0.24600
C1407       C  0.18329767  0.58983465  0.52568888    -0.23300
C1408       C  0.21872245  0.60468307  0.50987713     0.19600
F1409       F  0.23881991  0.64174549  0.50126532    -0.13300
F1410       F  0.27081323  0.59877852  0.49265644    -0.15700
F1411       F  0.12639757  0.53468660  0.54399940    -0.15700
F1412       F  0.15676724  0.49012853  0.53072040    -0.13300
C1413       C  0.40097353  0.54588128  0.63887231     0.24700
C1414       C  0.36102770  0.52780452  0.64052836    -0.23400
C1415       C  0.34346523  0.52239181  0.67106910     0.19600
C1416       C  0.36550857  0.53693456  0.69906772     0.24600
C1417       C  0.40535071  0.55757620  0.69684091    -0.23300
C1418       C  0.42283624  0.56084396  0.66675754     0.19600
F1419       F  0.46126329  0.58087856  0.66409133    -0.13300
F1420       F  0.41920986  0.55205687  0.60994001    -0.15700
F1421       F  0.34796004  0.53417929  0.72785341    -0.15700
F1422       F  0.30508228  0.50458629  0.67369559    -0.13300
C1423       C  0.15780285  0.48531851  0.65065840     0.24700
C1424       C  0.16806651  0.47603752  0.68003140    -0.23400
C1425       C  0.18563281  0.45397724  0.67902497     0.19600
C1426       C  0.19643727  0.44526336  0.64928926     0.24600
C1427       C  0.19002444  0.45855618  0.62028612    -0.23300
C1428       C  0.16874151  0.47672976  0.62120150     0.19600
F1429       F  0.16241534  0.49025900  0.59363735    -0.13300
F1430       F  0.13956080  0.50517369  0.65031965    -0.15700
F1431       F  0.21739660  0.42816796  0.64915345    -0.15700
F1432       F  0.19579981  0.44402527  0.70676145    -0.13300
C1433       C  0.42904998  0.62069395  0.52792916     0.24700
C1434       C  0.39068760  0.60486647  0.51970620    -0.23400
C1435       C  0.37767874  0.62908286  0.51040401     0.19600
C1436       C  0.40086825  0.66833118  0.51352813     0.24600
C1437       C  0.43789809  0.68424644  0.52562203    -0.23300
C1438       C  0.45273929  0.66026649  0.53046081     0.19600
F1439       F  0.48892682  0.67471881  0.54076116    -0.13300
F1440       F  0.44238311  0.59791870  0.53698698    -0.15700
F1441       F  0.38629653  0.69061609  0.50652092    -0.15700
F1442       F  0.34099177  0.61440221  0.50159794    -0.13300
C1443       C  0.25503798  0.36496517  0.60457760     0.24700
C1444       C  0.25965724  0.37098412  0.57091277    -0.23400
C1445       C  0.24686071  0.33941323  0.55015341     0.19600
C1446       C  0.22891957  0.30253526  0.56267090     0.24600
C1447       C  0.22231554  0.29633939  0.59617415    -0.23300
C1448       C  0.23592430  0.32795942  0.61705668     0.19600
F1449       F  0.23006722  0.32298014  0.64951687    -0.13300
F1450       F  0.26681876  0.39480493  0.62525246    -0.15700
F1451       F  0.21565402  0.27269997  0.54180876    -0.15700
F1452       F  0.25097993  0.34428187  0.51757613    -0.13300
C1453       C  0.86928802  0.64927060  0.92532369     0.24700
C1454       C  0.89002125  0.63107412  0.93060989    -0.23400
C1455       C  0.92963749  0.65169864  0.92577602     0.19600
C1456       C  0.94793319  0.68967158  0.91540799     0.24600
C1457       C  0.92667210  0.70711579  0.90882883    -0.23300
C1458       C  0.88725570  0.68653397  0.91445824     0.19600
F1459       F  0.86581365  0.70266864  0.90983116    -0.13300
F1460       F  0.83107238  0.63060391  0.92976690    -0.15700
F1461       F  0.98614219  0.70896670  0.91108893    -0.15700
F1462       F  0.95064233  0.63536448  0.93159709    -0.13300
C1463       C  0.89138580  0.45119144  0.82131578     0.24700
C1464       C  0.88429798  0.46369675  0.79207146    -0.23400
C1465       C  0.87766460  0.49407548  0.79294161     0.19600
C1466       C  0.87247639  0.50777762  0.82254878     0.24600
C1467       C  0.87457953  0.49174718  0.85180924    -0.23300
C1468       C  0.88686415  0.46535371  0.85108833     0.19600
F1469       F  0.88944516  0.44953557  0.87896713    -0.13300
F1470       F  0.89758490  0.42170135  0.82116418    -0.15700
F1471       F  0.86192448  0.53425048  0.82255080    -0.15700
F1472       F  0.87171494  0.50739693  0.76506959    -0.13300
C1473       C  0.98275268  0.40590212  0.71242011     0.24700
C1474       C  0.95112803  0.38744767  0.73323750    -0.23400
C1475       C  0.95738606  0.38721564  0.76673743     0.19600
C1476       C  0.99439538  0.40708325  0.77926843     0.24600
C1477       C  0.02586736  0.42651919  0.75848225    -0.23300
C1478       C  0.01972749  0.42473216  0.72487489     0.19600
F1479       F  0.04947679  0.44358931  0.70422167    -0.13300
F1480       F  0.97779974  0.40672804  0.68001773    -0.15700
F1481       F  0.99946809  0.40815636  0.81180472    -0.15700
F1482       F  0.92757234  0.37017234  0.78761325    -0.13300
C1483       C  0.81978557  0.37778004  0.96602133     0.24700
C1484       C  0.80115291  0.39799051  0.97134133    -0.23400
C1485       C  0.76428719  0.37908658  0.98453862     0.19600
C1486       C  0.74412274  0.33954401  0.98731495     0.24600
C1487       C  0.76126294  0.31857215  0.97829392    -0.23300
C1488       C  0.80041043  0.33847704  0.97059283     0.19600
F1489       F  0.81915387  0.31969392  0.96458678    -0.13300
F1490       F  0.85575885  0.39564802  0.95410021    -0.15700
F1491       F  0.70732585  0.32169429  0.99717171    -0.15700
F1492       F  0.74683440  0.39863605  0.99256718    -0.13300
C1493       C  0.80856534  0.29308664  0.87302561     0.24700
C1494       C  0.78494349  0.25345831  0.87357180    -0.23400
C1495       C  0.77686182  0.23325570  0.84425473     0.19600
C1496       C  0.78860872  0.25271323  0.81467473     0.24600
C1497       C  0.80852925  0.29278645  0.81407932    -0.23300
C1498       C  0.82009309  0.31257658  0.84370345     0.19600
F1499       F  0.84035381  0.35101589  0.84446537    -0.13300
F1500       F  0.81688650  0.31336415  0.90095440    -0.15700
F1501       F  0.77713347  0.23230018  0.78671957    -0.15700
F1502       F  0.75370999  0.19500809  0.84402231    -0.13300
C1503       C  0.71747603  0.09269573  0.89360891     0.24700
C1504       C  0.71513152  0.09806343  0.92706627    -0.23400
C1505       C  0.72941450  0.08210681  0.94876826     0.19600
C1506       C  0.74711120  0.06257652  0.93718350     0.24600
C1507       C  0.75185624  0.05959992  0.90367671    -0.23300
C1508       C  0.73609856  0.07411101  0.88203248     0.19600
F1509       F  0.73984981  0.07136563  0.84956379    -0.13300
F1510       F  0.70429343  0.10797926  0.87203231    -0.15700
F1511       F  0.76216364  0.04911931  0.95874344    -0.15700
F1512       F  0.72717120  0.08635510  0.98123956    -0.13300
C1513       C  0.69517916  0.23512980  0.69031725     0.24700
C1514       C  0.71293626  0.27363417  0.69859192    -0.23400
C1515       C  0.69088685  0.29088772  0.70119941     0.19600
C1516       C  0.65165711  0.26978260  0.69802109     0.24600
C1517       C  0.63308220  0.23034854  0.69312193    -0.23300
C1518       C  0.65546842  0.21352930  0.68759532     0.19600
F1519       F  0.63897408  0.17571104  0.68206803    -0.13300
F1520       F  0.71573808  0.21768223  0.68808199    -0.15700
F1521       F  0.63189264  0.28781015  0.70265452    -0.15700
F1522       F  0.70697741  0.32798537  0.70933955    -0.13300
C1523       C  0.57667000  0.12564931  0.85089705     0.24700
C1524       C  0.61645740  0.15017484  0.85152568    -0.23400
C1525       C  0.63595631  0.16389366  0.82196409     0.19600
C1526       C  0.61582774  0.15654102  0.79299785     0.24600
C1527       C  0.57590177  0.13531316  0.79294527    -0.23300
C1528       C  0.55658416  0.11846749  0.82181417     0.19600
F1529       F  0.51806006  0.09877262  0.82255028    -0.13300
F1530       F  0.55672285  0.11153506  0.87880751    -0.15700
F1531       F  0.63514402  0.17322278  0.76531962    -0.15700
F1532       F  0.67437412  0.18616143  0.82125350    -0.13300
C1533       C  0.40577972  0.00517799  0.71826384     0.24700
C1534       C  0.41936516  0.03646684  0.73943248    -0.23400
C1535       C  0.41350079  0.03007639  0.77296187     0.19600
C1536       C  0.39585753  0.99310374  0.78516465     0.24600
C1537       C  0.38272477  0.96182490  0.76400454    -0.23300
C1538       C  0.38713333  0.96815714  0.73041752     0.19600
F1539       F  0.37572167  0.93860897  0.70948132    -0.13300
F1540       F  0.41126946  0.01053467  0.68580631    -0.15700
F1541       F  0.39238699  0.98786774  0.81772931    -0.15700
F1542       F  0.42713573  0.05975975  0.79402988    -0.13300
C1543       C  0.56725681  0.32847378  0.67308348     0.24700
C1544       C  0.54925390  0.34775080  0.68436987    -0.23400
C1545       C  0.51119950  0.32662432  0.69464122     0.19600
C1546       C  0.49342774  0.28720707  0.69829133     0.24600
C1547       C  0.51291422  0.26835476  0.69010546    -0.23300
C1548       C  0.54890171  0.28892752  0.67538364     0.19600
F1549       F  0.56782097  0.27114375  0.66626879    -0.13300
F1550       F  0.60389200  0.34818994  0.66284772    -0.15700
F1551       F  0.45888167  0.26811368  0.71289253    -0.15700
F1552       F  0.49287183  0.34469009  0.70476144    -0.13300
C1553       C  0.74133187  0.54727793  0.81037548     0.24700
C1554       C  0.70157946  0.52416862  0.81070907    -0.23400
C1555       C  0.68267230  0.50791057  0.83983547     0.19600
C1556       C  0.70336637  0.51211152  0.86779007     0.24600
C1557       C  0.74323554  0.53238788  0.86688035    -0.23300
C1558       C  0.76216525  0.55123706  0.83841040     0.19600
F1559       F  0.80063570  0.56964963  0.83674944    -0.13300
F1560       F  0.76003020  0.56248591  0.78215185    -0.15700
F1561       F  0.68460895  0.49297079  0.89489373    -0.15700
F1562       F  0.64432464  0.48499733  0.84040703    -0.13300
C1563       C  0.71698921  0.42651950  0.67707298     0.24700
C1564       C  0.72635370  0.45992594  0.69442656    -0.23400
C1565       C  0.76377970  0.48292296  0.70551868     0.19600
C1566       C  0.78942236  0.46989386  0.70352444     0.24600
C1567       C  0.77776993  0.43364733  0.69088492    -0.23300
C1568       C  0.74250616  0.41346421  0.67540580     0.19600
F1569       F  0.73196235  0.37998310  0.66032731    -0.13300
F1570       F  0.68215572  0.40516577  0.66360501    -0.15700
F1571       F  0.82414190  0.49090440  0.71709765    -0.15700
F1572       F  0.77434528  0.51596160  0.72139012    -0.13300
C1573       C  0.60696315  0.59120700  0.75782828     0.24700
C1574       C  0.58905226  0.56239308  0.73419247    -0.23400
C1575       C  0.55439267  0.55525064  0.72133305     0.19600
C1576       C  0.53671880  0.57444458  0.73300665     0.24600
C1577       C  0.55286445  0.60130643  0.75827225    -0.23300
C1578       C  0.58896839  0.61063004  0.76979904     0.19600
F1579       F  0.60566703  0.63666879  0.79386468    -0.13300
F1580       F  0.64044485  0.59872402  0.77082037    -0.15700
F1581       F  0.50304385  0.56609228  0.71980098    -0.15700
F1582       F  0.53685517  0.52853573  0.69784349    -0.13300
C1583       C  0.44449451  0.16636817  0.87176926     0.24700
C1584       C  0.42618073  0.18741741  0.87306039    -0.23400
C1585       C  0.41253179  0.19393628  0.84423503     0.19600
C1586       C  0.42364241  0.18646036  0.81432472     0.24600
C1587       C  0.44812273  0.17181301  0.81304738    -0.23300
C1588       C  0.45595218  0.15906444  0.84186186     0.19600
F1589       F  0.47711256  0.14217898  0.84127129    -0.13300
F1590       F  0.45669198  0.15840600  0.89939903    -0.15700
F1591       F  0.41426613  0.19790741  0.78698801    -0.15700
F1592       F  0.39369242  0.21321310  0.84504406    -0.13300
C1593       C  0.51734684  0.40082435  0.85409507     0.24700
C1594       C  0.50026097  0.36121846  0.85260470    -0.23400
C1595       C  0.49688511  0.34335709  0.82266584     0.19600
C1596       C  0.51288588  0.36497156  0.79486947     0.24600
C1597       C  0.53298717  0.40470612  0.79680470    -0.23300
C1598       C  0.53406323  0.42253573  0.82632219     0.19600
F1599       F  0.55398594  0.46091999  0.82875492    -0.13300
F1600       F  0.52158568  0.41857846  0.88302480    -0.15700
F1601       F  0.51296086  0.34718870  0.76704158    -0.15700
F1602       F  0.48093009  0.30512670  0.82091424    -0.13300
C1603       C  0.51619491  0.18032081  0.97188901     0.24700
C1604       C  0.52609502  0.21773575  0.97949189    -0.23400
C1605       C  0.56364472  0.24397136  0.98823734     0.19600
C1606       C  0.59177606  0.23433236  0.98535513     0.24600
C1607       C  0.58244683  0.19787891  0.97482130    -0.23300
C1608       C  0.54418661  0.17030505  0.96991242     0.19600
F1609       F  0.53456512  0.13506440  0.95942276    -0.13300
F1610       F  0.48007606  0.15456485  0.96322050    -0.15700
F1611       F  0.62859412  0.26150670  0.99017853    -0.15700
F1612       F  0.57378829  0.28018713  0.99590695    -0.13300
C1613       C  0.62676380  0.36186458  0.94958310     0.24700
C1614       C  0.60128903  0.37531700  0.95305285    -0.23400
C1615       C  0.61614723  0.41394965  0.96024115     0.19600
C1616       C  0.65550034  0.43876357  0.96230226     0.24600
C1617       C  0.68088420  0.42550984  0.95700448    -0.23300
C1618       C  0.66576898  0.38648207  0.95154255     0.19600
F1619       F  0.68862203  0.37192333  0.94625251    -0.13300
F1620       F  0.61439378  0.32496709  0.94249040    -0.15700
F1621       F  0.66861604  0.47606480  0.96799367    -0.15700
F1622       F  0.59278864  0.42810963  0.96425360    -0.13300
C1623       C  0.35462232  0.26486216  0.89840082     0.24700
C1624       C  0.36010277  0.27234899  0.93178483    -0.23400
C1625       C  0.32926093  0.26653133  0.95121322     0.19600
C1626       C  0.29283863  0.25092280  0.93765062     0.24600
C1627       C  0.28681738  0.24020973  0.90464545    -0.23300
C1628       C  0.31845202  0.24897410  0.88493827     0.19600
F1629       F  0.31410871  0.24041122  0.85281307    -0.13300
F1630       F  0.38410502  0.27048433  0.87914292    -0.15700
F1631       F  0.26305475  0.24323235  0.95735973    -0.15700
F1632       F  0.33380191  0.27313532  0.98361047    -0.13300
C1633       C  0.85628381  0.49443057  0.08797933     0.24700
C1634       C  0.83859311  0.50382494  0.11249167    -0.23400
C1635       C  0.81665673  0.52003479  0.10408298     0.19600
C1636       C  0.81192697  0.52597969  0.07151863     0.24600
C1637       C  0.83018626  0.51707913  0.04705016    -0.23300
C1638       C  0.85269042  0.50160915  0.05562709     0.19600
F1639       F  0.87073864  0.49270054  0.03256415    -0.13300
F1640       F  0.87785066  0.47913428  0.09541867    -0.15700
F1641       F  0.79036769  0.54126871  0.06398204    -0.15700
F1642       F  0.79911437  0.52934941  0.12734619    -0.13300
C1643       C  0.99827270  0.61679473  0.25647892     0.24700
C1644       C  0.01916146  0.59844239  0.26064240    -0.23400
C1645       C  0.00169126  0.55969347  0.25264658     0.19600
C1646       C  0.96479511  0.53988400  0.24056318     0.24600
C1647       C  0.94354974  0.55779527  0.23660004    -0.23300
C1648       C  0.96049270  0.59644307  0.24508415     0.19600
F1649       F  0.94090948  0.61468544  0.24158906    -0.13300
F1650       F  0.01408894  0.65409775  0.26401180    -0.15700
F1651       F  0.94958687  0.50258088  0.23321695    -0.15700
F1652       F  0.02070725  0.54080280  0.25577441    -0.13300
C1653       C  0.48944953  0.13154404  0.59039916     0.24700
C1654       C  0.47324203  0.14115121  0.61614127    -0.23400
C1655       C  0.44982842  0.15614356  0.60905770     0.19600
C1656       C  0.44337387  0.16206097  0.57700405     0.24600
C1657       C  0.45920692  0.15209678  0.55126856    -0.23300
C1658       C  0.48200339  0.13638904  0.55824936     0.19600
F1659       F  0.49794558  0.12660002  0.53393448    -0.13300
F1660       F  0.51185598  0.11677956  0.59631793    -0.15700
F1661       F  0.42098699  0.17685866  0.57111988    -0.15700
F1662       F  0.43378530  0.16599580  0.63325616    -0.13300
C1663       C  0.28386162  0.06306555  0.43716254     0.24700
C1664       C  0.27773784  0.05826909  0.40358705    -0.23400
C1665       C  0.30894794  0.06945925  0.38271379     0.19600
C1666       C  0.34590592  0.08662231  0.39515401     0.24600
C1667       C  0.35230045  0.09403263  0.42860323    -0.23300
C1668       C  0.32079623  0.08127015  0.44953572     0.19600
F1669       F  0.32582667  0.08750421  0.48196895    -0.13300
F1670       F  0.25421140  0.05256708  0.45784683    -0.15700
F1671       F  0.37557292  0.09843018  0.37425982    -0.15700
F1672       F  0.30367755  0.06458784  0.35020349    -0.13300
C1673       C  0.50112333  0.35162415  0.06221373     0.24700
C1674       C  0.46928351  0.31767200  0.05100657    -0.23400
C1675       C  0.44065741  0.29505211  0.07335557     0.19600
C1676       C  0.44378988  0.30588644  0.10598403     0.24600
C1677       C  0.47571481  0.33976549  0.11723684    -0.23300
C1678       C  0.50422365  0.36250505  0.09478951     0.19600
F1679       F  0.53540265  0.39539119  0.10421500    -0.13300
F1680       F  0.52983612  0.37441638  0.04176731    -0.15700
F1681       F  0.41542860  0.28272817  0.12652895    -0.15700
F1682       F  0.40923846  0.26252433  0.06368884    -0.13300
C1683       C  0.64272385  0.40287962  0.18544734     0.24700
C1684       C  0.62732796  0.42436525  0.19742403    -0.23400
C1685       C  0.65206896  0.46321577  0.20408777     0.19600
C1686       C  0.69159665  0.47890447  0.20265047     0.24600
C1687       C  0.70674134  0.45623238  0.19353000    -0.23300
C1688       C  0.68200038  0.41878250  0.18336147     0.19600
F1689       F  0.69605361  0.39646508  0.17433364    -0.13300
F1690       F  0.61979724  0.36582653  0.17741248    -0.15700
F1691       F  0.71481891  0.51486988  0.21343396    -0.15700
F1692       F  0.63820093  0.48508873  0.21497800    -0.13300
C1693       C  0.42574445  0.22588534  0.34727697     0.24700
C1694       C  0.43556906  0.24602581  0.37670618    -0.23400
C1695       C  0.44778503  0.28482616  0.37658186     0.19600
C1696       C  0.45382366  0.30407089  0.34739605     0.24600
C1697       C  0.44778027  0.28480880  0.31769387    -0.23300
C1698       C  0.43156434  0.24507614  0.31790954     0.19600
F1699       F  0.42546280  0.22541704  0.28975281    -0.13300
F1700       F  0.41530658  0.18870181  0.34667504    -0.15700
F1701       F  0.46837713  0.34211012  0.34821258    -0.15700
F1702       F  0.45801237  0.30497187  0.40467875    -0.13300
C1703       C  0.38864498  0.37620426  0.26382933     0.24700
C1704       C  0.40469451  0.38247268  0.23248046    -0.23400
C1705       C  0.40105780  0.40764792  0.21190077     0.19600
C1706       C  0.38502692  0.42855058  0.22333585     0.24600
C1707       C  0.37205451  0.42472097  0.25546104    -0.23300
C1708       C  0.37253114  0.39734990  0.27527156     0.19600
F1709       F  0.36067481  0.39361794  0.30653824    -0.13300
F1710       F  0.39183000  0.35242051  0.28444578    -0.15700
F1711       F  0.38448364  0.45458879  0.20361635    -0.15700
F1712       F  0.41517203  0.41385611  0.18120957    -0.13300
C1713       C  0.73661643  0.69312458  0.43675220     0.24700
C1714       C  0.74145306  0.70111257  0.40337371    -0.23400
C1715       C  0.72787512  0.67054528  0.38126881     0.19600
C1716       C  0.71002876  0.63294237  0.39227822     0.24600
C1717       C  0.70635613  0.62511193  0.42564722    -0.23300
C1718       C  0.71976925  0.65557122  0.44775133     0.19600
F1719       F  0.71734122  0.64896314  0.48009610    -0.13300
F1720       F  0.75077655  0.72185955  0.45877810    -0.15700
F1721       F  0.69864297  0.60431963  0.37033545    -0.15700
F1722       F  0.73295064  0.67719503  0.34892552    -0.13300
C1723       C  0.63438342  0.52744522  0.56252597     0.24700
C1724       C  0.66292094  0.52115796  0.54958557    -0.23400
C1725       C  0.67953812  0.50652441  0.57007474     0.19600
C1726       C  0.66888088  0.49931871  0.60257784     0.24600
C1727       C  0.64137249  0.50668450  0.61565118    -0.23300
C1728       C  0.62373089  0.52013260  0.59527145     0.19600
F1729       F  0.59705439  0.52738869  0.60722892    -0.13300
F1730       F  0.61680769  0.54071861  0.54365481    -0.15700
F1731       F  0.68516457  0.48450978  0.62132305    -0.15700
F1732       F  0.70594047  0.49850754  0.55874311    -0.13300
C1733       C  0.78483635  0.50679092  0.36967851     0.24700
C1734       C  0.76317462  0.52455744  0.36835886    -0.23400
C1735       C  0.75775706  0.53691560  0.33852068     0.19600
C1736       C  0.77133056  0.52915395  0.31003096     0.24600
C1737       C  0.79054273  0.50873012  0.31098459    -0.23300
C1738       C  0.79859582  0.49907478  0.34121423     0.19600
F1739       F  0.81823209  0.48067592  0.34311777    -0.13300
F1740       F  0.78985960  0.49403227  0.39835619    -0.15700
F1741       F  0.76232240  0.53838755  0.28131514    -0.15700
F1742       F  0.73552030  0.55252607  0.33657776    -0.13300
C1743       C  0.55162383  0.45631711  0.35652409     0.24700
C1744       C  0.59156319  0.47858415  0.35660482    -0.23400
C1745       C  0.61070481  0.49416848  0.32734161     0.19600
C1746       C  0.59089632  0.48374355  0.29810870     0.24600
C1747       C  0.55196157  0.45663232  0.29755089    -0.23300
C1748       C  0.53195026  0.44518277  0.32703280     0.19600
F1749       F  0.49424839  0.41913829  0.32714457    -0.13300
F1750       F  0.53212232  0.44173021  0.38455606    -0.15700
F1751       F  0.61065173  0.49599573  0.26995948    -0.15700
F1752       F  0.64899737  0.51735790  0.32682612    -0.13300
C1753       C  0.56500540  0.33361873  0.49426109     0.24700
C1754       C  0.52697019  0.31378077  0.48408785    -0.23400
C1755       C  0.50904169  0.33472614  0.47770147     0.19600
C1756       C  0.53055547  0.37443001  0.47565379     0.24600
C1757       C  0.56971193  0.39367647  0.48152549    -0.23300
C1758       C  0.58594647  0.37325988  0.49348723     0.19600
F1759       F  0.62324122  0.39164320  0.50141051    -0.13300
F1760       F  0.58268772  0.31465762  0.50282401    -0.15700
F1761       F  0.51395496  0.39366669  0.46488839    -0.15700
F1762       F  0.47162728  0.31683099  0.47015954    -0.13300
C1763       C  0.80152754  0.32903147  0.56319093     0.24700
C1764       C  0.82282483  0.31543355  0.54731340    -0.23400
C1765       C  0.85258871  0.31563413  0.56420211     0.19600
C1766       C  0.86027285  0.32821720  0.59658910     0.24600
C1767       C  0.83930080  0.34229990  0.61246214    -0.23300
C1768       C  0.80989808  0.34267495  0.59529322     0.19600
F1769       F  0.78861692  0.35541313  0.60986533    -0.13300
F1770       F  0.77333865  0.33022175  0.54719690    -0.15700
F1771       F  0.88892850  0.32752144  0.61221431    -0.15700
F1772       F  0.87427139  0.30360137  0.54926586    -0.13300
C1773       C  0.83335489  0.34937415  0.31816876     0.24700
C1774       C  0.84096756  0.37003132  0.34728610    -0.23400
C1775       C  0.86114730  0.40999645  0.34601315     0.19600
C1776       C  0.86888538  0.42849192  0.31611489     0.24600
C1777       C  0.85708025  0.40735030  0.28726875    -0.23300
C1778       C  0.84156037  0.36794232  0.28844881     0.19600
F1779       F  0.83014253  0.34694935  0.26081335    -0.13300
F1780       F  0.81549424  0.31096377  0.31836706    -0.15700
F1781       F  0.88306337  0.46648243  0.31557741    -0.15700
F1782       F  0.86966644  0.43104943  0.37358498    -0.13300
C1783       C  0.65058744  0.24906431  0.48837545     0.24700
C1784       C  0.66626230  0.22939550  0.47308505    -0.23400
C1785       C  0.64167427  0.19183721  0.46267849     0.19600
C1786       C  0.60235272  0.17697317  0.46223301     0.24600
C1787       C  0.58734266  0.19916272  0.47305076    -0.23300
C1788       C  0.61137844  0.23423351  0.48799467     0.19600
F1789       F  0.59708055  0.25533857  0.49997845    -0.13300
F1790       F  0.67332748  0.28319914  0.50260929    -0.15700
F1791       F  0.57944887  0.14271070  0.44812845    -0.15700
F1792       F  0.65574758  0.17078310  0.45027118    -0.13300
C1793       C  0.72827185  0.37475073  0.46719581     0.24700
C1794       C  0.76803510  0.39243545  0.46619489    -0.23400
C1795       C  0.78975974  0.43189512  0.47001722     0.19600
C1796       C  0.77177053  0.45336886  0.47207512     0.24600
C1797       C  0.73165821  0.43549581  0.47048141    -0.23300
C1798       C  0.71032276  0.39571048  0.47008057     0.19600
F1799       F  0.67183191  0.37673157  0.46947197    -0.13300
F1800       F  0.70633162  0.33705177  0.46205349    -0.15700
F1801       F  0.79381577  0.49171468  0.47291893    -0.15700
F1802       F  0.82819799  0.44992190  0.46829979    -0.13300
C1803       C  0.90616316  0.26487761  0.44669198     0.24700
C1804       C  0.88825069  0.27664260  0.42469910    -0.23400
C1805       C  0.89084804  0.27086193  0.39135010     0.19600
C1806       C  0.90887401  0.25141267  0.38037967     0.24600
C1807       C  0.92565621  0.23843324  0.40249184    -0.23300
C1808       C  0.92523760  0.24653013  0.43567380     0.19600
F1809       F  0.94098316  0.23430776  0.45769875    -0.13300
F1810       F  0.90412949  0.27013286  0.47901620    -0.15700
F1811       F  0.90922062  0.24452035  0.34817126    -0.15700
F1812       F  0.87355751  0.28161680  0.36956076    -0.13300
C1813       C  0.65641186  0.18030617  0.06510073     0.24700
C1814       C  0.66585657  0.15575791  0.04911242    -0.23400
C1815       C  0.65778437  0.12194573  0.06429036     0.19600
C1816       C  0.64171201  0.11334781  0.09538023     0.24600
C1817       C  0.63196024  0.13768230  0.11138566    -0.23300
C1818       C  0.63921845  0.17114712  0.09584304     0.19600
F1819       F  0.63108148  0.19573283  0.11096459    -0.13300
F1820       F  0.66282245  0.21260571  0.05053544    -0.15700
F1821       F  0.63556534  0.08110773  0.10985393    -0.15700
F1822       F  0.66603282  0.09747579  0.04911869    -0.13300
C1823       C  0.58589893  0.26441126  0.20791239     0.24700
C1824       C  0.56709822  0.22799206  0.19394608    -0.23400
C1825       C  0.52972563  0.21340878  0.18237120     0.19600
C1826       C  0.51082208  0.23377157  0.18698020     0.24600
C1827       C  0.52872186  0.26842205  0.20390964    -0.23300
C1828       C  0.56675466  0.28377564  0.21348551     0.19600
F1829       F  0.58520064  0.31692788  0.23021860    -0.13300
F1830       F  0.62193364  0.28021295  0.21917878    -0.15700
F1831       F  0.47425153  0.21824651  0.17730340    -0.15700
F1832       F  0.51085480  0.17872563  0.16803008    -0.13300
C1833       C  0.75732482  0.21072734  0.33653402     0.24700
C1834       C  0.73613568  0.20227263  0.36548490    -0.23400
C1835       C  0.69670542  0.17728488  0.36408592     0.19600
C1836       C  0.67824112  0.16447584  0.33445146     0.24600
C1837       C  0.69871293  0.17662315  0.30527687    -0.23300
C1838       C  0.73871381  0.19780518  0.30650531     0.19600
F1839       F  0.75945198  0.20949222  0.27872327    -0.13300
F1840       F  0.79539486  0.23508850  0.33696942    -0.15700
F1841       F  0.63975438  0.14280645  0.33422664    -0.15700
F1842       F  0.67531154  0.16906067  0.39130011    -0.13300
C1843       C  0.51533818  0.16116630  0.29312062     0.24700
C1844       C  0.52918978  0.13608024  0.29156625    -0.23400
C1845       C  0.52608345  0.11480491  0.31900487     0.19600
C1846       C  0.51288531  0.12139371  0.34848264     0.24600
C1847       C  0.50305260  0.14979090  0.35093599    -0.23300
C1848       C  0.50235614  0.16793576  0.32239310     0.19600
F1849       F  0.49113033  0.19388892  0.32301232    -0.13300
F1850       F  0.51747908  0.18166364  0.26668746    -0.15700
F1851       F  0.51265055  0.10204198  0.37505408    -0.15700
F1852       F  0.53944889  0.09057665  0.31815938    -0.13300
C1853       C  0.72716143  0.32235737  0.16909371     0.24700
C1854       C  0.76480404  0.34196600  0.18026080    -0.23400
C1855       C  0.78277037  0.32098970  0.18629460     0.19600
C1856       C  0.76168100  0.28128292  0.18668324     0.24600
C1857       C  0.72282583  0.26195958  0.17977003    -0.23300
C1858       C  0.70653661  0.28265365  0.16840553     0.19600
F1859       F  0.66945320  0.26446055  0.15972161    -0.13300
F1860       F  0.70962696  0.34142656  0.16054961    -0.15700
F1861       F  0.77819147  0.26189541  0.19728478    -0.15700
F1862       F  0.81975053  0.33868963  0.19521182    -0.13300
C1863       C  0.54284712  0.01496833  0.24974219     0.24700
C1864       C  0.57945705  0.03184599  0.23624678    -0.23400
C1865       C  0.59836186  0.01120250  0.23576919     0.19600
C1866       C  0.58062216  0.97412104  0.24831088     0.24600
C1867       C  0.54421497  0.95766079  0.26249280    -0.23300
C1868       C  0.52564179  0.97867279  0.26291993     0.19600
F1869       F  0.49015714  0.96380047  0.27556789    -0.13300
F1870       F  0.52381437  0.03404805  0.25089068    -0.15700
F1871       F  0.59925787  0.95467356  0.24708557    -0.15700
F1872       F  0.63353687  0.02655343  0.22245063    -0.13300
loop_ 
_geom_bond_atom_site_label_1 
_geom_bond_atom_site_label_2 
_geom_bond_distance 
_geom_bond_site_symmetry_2 
_ccdc_geom_bond_type 
O1          Cr19   1.980       .  S
O1            C9   1.260       .  A
O2          Cr19   1.971       .  S
O2            C3   1.261       .  A
C3            O4   1.268       .  A
C3         C1837   1.485       .  S
O4          Cr20   2.029       .  S
O5          Cr20   1.994       .  S
O5            C6   1.267       .  A
C6            O7   1.272       .  A
C6         C1864   1.486       .  S
O7          Cr21   2.015       .  S
O8          Cr21   2.010       .  S
O8            C9   1.268       .  A
C9         C1844   1.475       .  S
O10         Cr19   1.973       .  S
O10          C18   1.261       .  A
O11         Cr19   1.986       .  S
O11          C12   1.259       .  A
C12          O13   1.263       .  A
C12        C1857   1.472       .  S
O13         Cr20   2.010       .  S
O14         Cr20   1.994       .  S
O14          C15   1.260       .  A
C15          O16   1.263       .  A
C15        C1817   1.481       .  S
O16         Cr21   2.003       .  S
O17         Cr21   2.013       .  S
O17          C18   1.264       .  A
C18        C1824   1.488       .  S
Cr19         O22   1.755       .  S
Cr20         O22   1.781       .  S
Cr21         O22   1.772       .  S
O23         Cr41   2.025       .  S
O23          C31   1.269       .  A
O24         Cr41   2.007       .  S
O24          C25   1.265       .  A
C25          O26   1.265       .  A
C25        C1804   1.483       .  S
O26         Cr42   2.002       .  S
O27         Cr42   2.009       .  S
O27          C28   1.265       .  A
C28          O29   1.263       .  A
C28        C1774   1.483       .  S
O29         Cr43   1.983       .  S
O30         Cr43   1.979       .  S
O30          C31   1.258       .  A
C31        C1834   1.480       .  S
O32         Cr41   2.017       .  S
O32          C40   1.266       .  A
O33         Cr41   2.011       .  S
O33          C34   1.268       .  A
C34          O35   1.265       .  A
C34        C1764   1.489       .  S
O35         Cr42   2.010       .  S
O36         Cr42   2.017       .  S
O36          C37   1.267       .  A
C37          O38   1.259       .  A
C37        C1794   1.480       .  S
O38         Cr43   1.982       .  S
O39         Cr43   1.982       .  S
O39          C40   1.262       .  A
C40        C1784   1.482       .  S
Cr41         O44   1.771       .  S
Cr42         O44   1.775       .  S
Cr43         O44   1.758       .  S
O45         Cr63   2.000       .  S
O45          C53   1.267       .  A
O46         Cr63   2.021       .  S
O46          C47   1.269       .  A
C47          O48   1.266       .  A
C47        C1717   1.489       .  S
O48         Cr64   2.001       .  S
O49         Cr64   2.008       .  S
O49          C50   1.263       .  A
C50          O51   1.263       .  A
C50        C1744   1.479       .  S
O51         Cr65   1.987       .  S
O52         Cr65   1.979       .  S
O52          C53   1.260       .  A
C53        C1734   1.466       .  S
O54         Cr63   2.010       .  S
O54          C62   1.264       .  A
O55         Cr63   1.986       .  S
O55          C56   1.265       .  A
C56          O57   1.258       .  A
C56        C1724   1.489       .  S
O57         Cr64   1.995       .  S
O58         Cr64   2.006       .  S
O58          C59   1.264       .  A
C59          O60   1.262       .  A
C59        C1757   1.475       .  S
O60         Cr65   1.993       .  S
O61         Cr65   1.985       .  S
O61          C62   1.265       .  A
C62        C1797   1.494       .  S
Cr63         O66   1.774       .  S
Cr64         O66   1.779       .  S
Cr65         O66   1.760       .  S
O67         Cr85   1.975       .  S
O67          C75   1.258       .  A
O68         Cr85   1.982       .  S
O68          C69   1.263       .  A
C69          O70   1.266       .  A
C69        C1697   1.483       .  S
O70         Cr86   2.013       .  S
O71         Cr86   2.001       .  S
O71          C72   1.267       .  A
C72          O73   1.267       .  A
C72        C1704   1.488       .  S
O73         Cr87   2.000       .  S
O74         Cr87   2.009       .  S
O74          C75   1.265       .  A
C75        C1747   1.468       .  S
O76         Cr85   1.982       .  S
O76          C84   1.262       .  A
O77         Cr85   1.979       .  S
O77          C78   1.258       .  A
C78          O79   1.267       .  A
C78        C1827   1.483       .  S
O79         Cr86   2.019       .  S
O80         Cr86   1.996       .  S
O80          C81   1.263       .  A
C81          O82   1.265       .  A
C81        C1677   1.491       .  S
O82         Cr87   1.995       .  S
O83         Cr87   2.019       .  S
O83          C84   1.266       .  A
C84        C1684   1.484       .  S
Cr85         O88   1.754       .  S
Cr86         O88   1.773       .  S
Cr87         O88   1.770       .  S
O89        Cr107   2.005       .  S
O89          C97   1.267       .  A
O90        Cr107   2.004       .  S
O90          C91   1.263       .  A
C91          O92   1.261       .  A
C91        C1667   1.485       .  S
O92        Cr108   1.997       .  S
O93        Cr108   2.002       .  S
O93          C94   1.263       .  A
C94          O95   1.263       .  A
C94        C1847   1.492       .  S
O95        Cr109   1.988       .  S
O96        Cr109   1.986       .  S
O96          C97   1.262       .  A
C97        C1694   1.469       .  S
O98        Cr107   2.016       .  S
O98         C106   1.264       .  A
O99        Cr107   1.991       .  S
O99         C100   1.267       .  A
C100        O101   1.267       .  A
C100       C1657   1.481       .  S
O101       Cr108   2.002       .  S
O102       Cr108   1.990       .  S
O102        C103   1.261       .  A
C103        O104   1.262       .  A
C103       C1787   1.467       .  S
O104       Cr109   1.986       .  S
O105       Cr109   1.989       .  S
O105        C106   1.262       .  A
C106       C1754   1.491       .  S
Cr107       O110   1.777       .  S
Cr108       O110   1.777       .  S
Cr109       O110   1.762       .  S
O111       Cr129   1.980       .  S
O111        C119   1.259       .  A
O112       Cr129   1.995       .  S
O112        C113   1.265       .  A
C113        O114   1.261       .  A
C113       C1737   1.481       .  S
O114       Cr130   1.987       .  S
O115       Cr130   2.013       .  S
O115        C116   1.265       .  A
C116        O117   1.263       .  A
C116       C1647   1.493       .  S
O117       Cr131   1.997       .  S
O118       Cr131   2.003       .  S
O118        C119   1.265       .  A
C119       C1777   1.466       .  S
O120       Cr129   1.998       .  S
O120        C128   1.264       .  A
O121       Cr129   1.978       .  S
O121        C122   1.259       .  A
C122        O123   1.266       .  A
C122       C1687   1.472       .  S
O123       Cr130   2.007       .  S
O124       Cr130   1.992       .  S
O124        C125   1.264       .  A
C125        O126   1.265       .  A
C125       C1634   1.474       .  S
O126       Cr131   1.986       .  S
O127       Cr131   2.007       .  S
O127        C128   1.264       .  A
C128       C1854   1.491       .  S
Cr129       O132   1.767       .  S
Cr130       O132   1.781       .  S
Cr131       O132   1.774       .  S
O133       Cr151   1.946       .  S
O133        C141   1.255       .  A
O134       Cr151   1.991       .  S
O134        C135   1.258       .  A
C135        O136   1.253       .  A
C135       C1594   1.464       .  S
O136       Cr152   1.977       .  S
O137       Cr152   2.031       .  S
O137        C138   1.272       .  A
C138        O139   1.259       .  A
C138       C1624   1.476       .  S
O139       Cr153   1.962       .  S
O140       Cr153   2.046       .  S
O140        C141   1.273       .  A
C141       C1584   1.464       .  S
O142       Cr151   2.000       .  S
O142        C150   1.261       .  A
O143       Cr151   1.944       .  S
O143        C144   1.258       .  A
C144        O145   1.277       .  A
C144       C1614   1.488       .  S
O145       Cr152   2.041       .  S
O146       Cr152   1.954       .  S
O146        C147   1.253   1_556  A
C147        O148   1.269       .  A
C147       C1674   1.489       .  S
O148       Cr153   2.024   1_554  S
O149       Cr153   2.002       .  S
O149        C150   1.262       .  A
C150       C1604   1.471       .  S
Cr151       O154   1.752       .  S
Cr152       O154   1.771       .  S
Cr153       O154   1.775       .  S
O155       Cr173   2.031       .  S
O155        C163   1.273       .  A
O156       Cr173   1.965       .  S
O156        C157   1.258       .  A
C157        O158   1.270       .  A
C157       C1574   1.489       .  S
O158       Cr174   2.032       .  S
O159       Cr174   1.979       .  S
O159        C160   1.255       .  A
C160        O161   1.261       .  A
C160       C1554   1.464       .  S
O161       Cr175   1.999       .  S
O162       Cr175   1.962       .  S
O162        C163   1.260       .  A
C163       C1597   1.466       .  S
O164       Cr173   1.995       .  S
O164        C172   1.258       .  A
O165       Cr173   2.025       .  S
O165        C166   1.271       .  A
C166        O167   1.253       .  A
C166       C1727   1.477       .  S
O167       Cr174   1.948       .  S
O168       Cr174   2.038       .  S
O168        C169   1.275       .  A
C169        O170   1.260       .  A
C169       C1564   1.483       .  S
O170       Cr175   1.962       .  S
O171       Cr175   1.998       .  S
O171        C172   1.260       .  A
C172       C1544   1.474       .  S
Cr173       O176   1.778       .  S
Cr174       O176   1.779       .  S
Cr175       O176   1.760       .  S
O177       Cr195   2.011       .  S
O177        C185   1.267       .  A
O178       Cr195   2.014       .  S
O178        C179   1.269       .  A
C179        O180   1.264       .  A
C179       C1534   1.480       .  S
O180       Cr196   1.989       .  S
O181       Cr196   1.999       .  S
O181        C182   1.262       .  A
C182        O183   1.261       .  A
C182       C1587   1.479       .  S
O183       Cr197   1.986       .  S
O184       Cr197   1.978       .  S
O184        C185   1.259       .  A
C185       C1527   1.472       .  S
O186       Cr195   2.009       .  S
O186        C194   1.266       .  A
O187       Cr195   2.004       .  S
O187        C188   1.265       .  A
C188        O189   1.260       .  A
C188       C1654   1.483       .  S
O189       Cr196   1.987       .  S
O190       Cr196   2.004       .  S
O190        C191   1.263       .  A
C191        O192   1.263       .  A
C191       C1547   1.476       .  S
O192       Cr197   1.999       .  S
O193       Cr197   1.973       .  S
O193        C194   1.263       .  A
C194       C1517   1.488       .  S
Cr195       O198   1.772       .  S
Cr196       O198   1.771       .  S
Cr197       O198   1.759       .  S
O199       Cr217   1.985       .  S
O199        C207   1.263       .  A
O200       Cr217   1.989       .  S
O200        C201   1.262       .  A
C201        O202   1.262       .  A
C201       C1524   1.488       .  S
O202       Cr218   2.000       .  S
O203       Cr218   1.997       .  S
O203        C204   1.263       .  A
C204        O205   1.265       .  A
C204       C1504   1.486       .  S
O205       Cr219   2.014       .  S
O206       Cr219   2.013       .  S
O206        C207   1.271       .  A
C207       C1494   1.474       .  S
O208       Cr217   1.990       .  S
O208        C216   1.261       .  A
O209       Cr217   1.990       .  S
O209        C210   1.263       .  A
C210        O211   1.264       .  A
C210       C1607   1.475       .  S
O211       Cr218   1.996       .  S
O212       Cr218   2.002       .  S
O212        C213   1.265   1_556  A
C213        O214   1.266       .  A
C213       C1814   1.477       .  S
O214       Cr219   1.999   1_554  S
O215       Cr219   2.004       .  S
O215        C216   1.262       .  A
C216       C1487   1.488       .  S
Cr217       O220   1.763       .  S
Cr218       O220   1.777       .  S
Cr219       O220   1.774       .  S
O221       Cr239   2.011       .  S
O221        C229   1.266       .  A
O222       Cr239   2.011       .  S
O222        C223   1.268       .  A
C223        O224   1.265       .  A
C223       C1474   1.487       .  S
O224       Cr240   1.997       .  S
O225       Cr240   2.014       .  S
O225        C226   1.266       .  A
C226        O227   1.264       .  A
C226       C1497   1.491       .  S
O227       Cr241   1.988       .  S
O228       Cr241   1.986       .  S
O228        C229   1.261       .  A
C229       C1464   1.474       .  S
O230       Cr239   2.019       .  S
O230        C238   1.265       .  A
O231       Cr239   2.009       .  S
O231        C232   1.267       .  A
C232        O233   1.266       .  A
C232       C1767   1.496       .  S
O233       Cr240   2.015       .  S
O234       Cr240   2.006       .  S
O234        C235   1.266       .  A
C235        O236   1.261       .  A
C235       C1514   1.475       .  S
O236       Cr241   1.982       .  S
O237       Cr241   1.975       .  S
O237        C238   1.259       .  A
C238       C1567   1.477       .  S
Cr239       O242   1.773       .  S
Cr240       O242   1.774       .  S
Cr241       O242   1.757       .  S
O243       Cr261   1.985       .  S
O243        C251   1.261       .  A
O244       Cr261   1.973       .  S
O244        C245   1.257       .  A
C245        O246   1.266       .  A
C245       C1467   1.480       .  S
O246       Cr262   2.026       .  S
O247       Cr262   1.997       .  S
O247        C248   1.269       .  A
C248        O249   1.270       .  A
C248       C1454   1.486       .  S
O249       Cr263   2.005       .  S
O250       Cr263   1.994       .  S
O250        C251   1.263       .  A
C251       C1557   1.465       .  S
O252       Cr261   1.963       .  S
O252        C260   1.258       .  A
O253       Cr261   2.000       .  S
O253        C254   1.264       .  A
C254        O255   1.261       .  A
C254       C1484   1.473       .  S
O255       Cr262   1.997       .  S
O256       Cr262   1.991       .  S
O256        C257   1.261   1_556  A
C257        O258   1.263       .  A
C257       C1637   1.475       .  S
O258       Cr263   1.993   1_554  S
O259       Cr263   2.014       .  S
O259        C260   1.266       .  A
C260       C1617   1.488       .  S
Cr261       O264   1.758       .  S
Cr262       O264   1.776       .  S
Cr263       O264   1.771       .  S
O265       Cr283   1.977       .  S
O265        C273   1.259       .  A
O266       Cr283   1.989       .  S
O266        C267   1.263       .  A
C267        O268   1.262       .  A
C267       C1414   1.482       .  S
O268       Cr284   1.993       .  S
O269       Cr284   2.003       .  S
O269        C270   1.264       .  A
C270        O271   1.265       .  A
C270       C1444   1.487       .  S
O271       Cr285   2.011       .  S
O272       Cr285   2.013       .  S
O272        C273   1.268       .  A
C273       C1427   1.472       .  S
O274       Cr283   1.985       .  S
O274        C282   1.263       .  A
O275       Cr283   1.979       .  S
O275        C276   1.260       .  A
C276        O277   1.266       .  A
C276       C1434   1.474       .  S
O277       Cr284   2.008       .  S
O278       Cr284   2.003       .  S
O278        C279   1.264       .  A
C279        O280   1.269       .  A
C279       C1397   1.493       .  S
O280       Cr285   1.996       .  S
O281       Cr285   2.022       .  S
O281        C282   1.266       .  A
C282       C1404   1.491       .  S
Cr283       O286   1.762       .  S
Cr284       O286   1.777       .  S
Cr285       O286   1.776       .  S
O287       Cr305   1.995       .  S
O287        C295   1.262       .  A
O288       Cr305   2.018       .  S
O288        C289   1.268       .  A
C289        O290   1.265       .  A
C289       C1477   1.484       .  S
O290       Cr306   1.995       .  S
O291       Cr306   2.006       .  S
O291        C292   1.264       .  A
C292        O293   1.264       .  A
C292       C1424   1.487       .  S
O293       Cr307   1.987       .  S
O294       Cr307   1.990       .  S
O294        C295   1.262       .  A
C295       C1364   1.465       .  S
O296       Cr305   2.025       .  S
O296        C304   1.268       .  A
O297       Cr305   1.989       .  S
O297        C298   1.262       .  A
C298        O299   1.263       .  A
C298       C1354   1.472       .  S
O299       Cr306   2.003       .  S
O300       Cr306   2.014       .  S
O300        C301   1.268       .  A
C301        O302   1.263       .  A
C301       C1384   1.486       .  S
O302       Cr307   1.990       .  S
O303       Cr307   1.976       .  S
O303        C304   1.260       .  A
C304       C1374   1.483       .  S
Cr305       O308   1.774       .  S
Cr306       O308   1.772       .  S
Cr307       O308   1.755       .  S
O309       Cr327   2.010       .  S
O309        C317   1.268       .  A
O310       Cr327   2.006       .  S
O310        C311   1.263       .  A
C311        O312   1.263       .  A
C311       C1537   1.481       .  S
O312       Cr328   1.998       .  S
O313       Cr328   1.993       .  S
O313        C314   1.261       .  A
C314        O315   1.263       .  A
C314       C1344   1.483       .  S
O315       Cr329   1.995       .  S
O316       Cr329   1.983       .  S
O316        C317   1.262       .  A
C317       C1324   1.472       .  S
O318       Cr327   2.013       .  S
O318        C326   1.263       .  A
O319       Cr327   1.998       .  S
O319        C320   1.267       .  A
C320        O321   1.265       .  A
C320       C1314   1.483       .  S
O321       Cr328   1.998       .  S
O322       Cr328   2.000       .  S
O322        C323   1.264       .  A
C323        O324   1.262       .  A
C323       C1377   1.473       .  S
O324       Cr329   1.987       .  S
O325       Cr329   1.987       .  S
O325        C326   1.263       .  A
C326       C1337   1.487       .  S
Cr327       O330   1.780       .  S
Cr328       O330   1.776       .  S
Cr329       O330   1.763       .  S
O331       Cr349   1.956       .  S
O331        C339   1.263       .  A
O332       Cr349   1.998       .  S
O332        C333   1.256       .  A
C333        O334   1.248       .  A
C333       C1367   1.463       .  S
O334       Cr350   1.979       .  S
O335       Cr350   2.031       .  S
O335        C336   1.271       .  A
C336        O337   1.262       .  A
C336       C1304   1.499       .  S
O337       Cr351   1.977       .  S
O338       Cr351   2.051       .  S
O338        C339   1.280       .  A
C339       C1347   1.476       .  S
O340       Cr349   1.987       .  S
O340        C348   1.257       .  A
O341       Cr349   1.941       .  S
O341        C342   1.259       .  A
C342        O343   1.282       .  A
C342       C1407   1.488       .  S
O343       Cr350   2.063       .  S
O344       Cr350   1.942       .  S
O344        C345   1.251       .  A
C345        O346   1.273       .  A
C345       C1284   1.496       .  S
O346       Cr351   2.032       .  S
O347       Cr351   1.999       .  S
O347        C348   1.257       .  A
C348       C1294   1.474       .  S
Cr349       O352   1.762       .  S
Cr350       O352   1.778       .  S
Cr351       O352   1.779       .  S
O353       Cr371   2.041       .  S
O353        C361   1.277       .  A
O354       Cr371   1.966       .  S
O354        C355   1.260       .  A
C355        O356   1.271       .  A
C355       C1577   1.495       .  S
O356       Cr372   2.033       .  S
O357       Cr372   1.979       .  S
O357        C358   1.248       .  A
C358        O359   1.256       .  A
C358       C1277   1.462       .  S
O359       Cr373   1.998       .  S
O360       Cr373   1.957       .  S
O360        C361   1.263       .  A
C361       C1417   1.468       .  S
O362       Cr371   2.006       .  S
O362        C370   1.261       .  A
O363       Cr371   2.033       .  S
O363        C364   1.272       .  A
C364        O365   1.250       .  A
C364       C1264   1.476       .  S
O365       Cr372   1.934       .  S
O366       Cr372   2.060       .  S
O366        C367   1.282       .  A
C367        O368   1.258       .  A
C367       C1334   1.483       .  S
O368       Cr373   1.936       .  S
O369       Cr373   1.990       .  S
O369        C370   1.258       .  A
C370       C1387   1.479       .  S
Cr371       O374   1.778       .  S
Cr372       O374   1.780       .  S
Cr373       O374   1.760       .  S
O375       Cr393   1.984       .  S
O375        C383   1.260       .  A
O376       Cr393   1.991       .  S
O376        C377   1.265       .  A
C377        O378   1.263       .  A
C377       C1327   1.485       .  S
O378       Cr394   2.001       .  S
O379       Cr394   1.989       .  S
O379        C380   1.264       .  A
C380        O381   1.268       .  A
C380       C1257   1.482       .  S
O381       Cr395   2.011       .  S
O382       Cr395   1.994       .  S
O382        C383   1.261       .  A
C383       C1274   1.463       .  S
O384       Cr393   1.983       .  S
O384        C392   1.263       .  A
O385       Cr393   1.987       .  S
O385        C386   1.262       .  A
C386        O387   1.264       .  A
C386       C1297   1.480       .  S
O387       Cr394   2.005       .  S
O388       Cr394   1.985       .  S
O388        C389   1.261       .  A
C389        O390   1.261       .  A
C389       C1244   1.464       .  S
O390       Cr395   1.984       .  S
O391       Cr395   2.022       .  S
O391        C392   1.267       .  A
C392       C1437   1.487       .  S
Cr393       O396   1.755       .  S
Cr394       O396   1.774       .  S
Cr395       O396   1.776       .  S
O397       Cr415   2.002       .  S
O397        C405   1.263       .  A
O398       Cr415   2.016       .  S
O398        C399   1.267       .  A
C399        O400   1.264       .  A
C399       C1197   1.486       .  S
O400       Cr416   1.998       .  S
O401       Cr416   2.007       .  S
O401        C402   1.264       .  A
C402        O403   1.261       .  A
C402       C1224   1.487       .  S
O403       Cr417   1.978       .  S
O404       Cr417   1.987       .  S
O404        C405   1.262       .  A
C405       C1214   1.469       .  S
O406       Cr415   2.043       .  S
O406        C414   1.271       .  A
O407       Cr415   1.993   1_556  S
O407        C408   1.267       .  A
C408        O409   1.265   1_556  A
C408       C1317   1.485       .  S
O409       Cr416   1.999       .  S
O410       Cr416   2.004       .  S
O410        C411   1.265       .  A
C411        O412   1.262       .  A
C411       C1234   1.478       .  S
O412       Cr417   1.987       .  S
O413       Cr417   1.983       .  S
O413        C414   1.261       .  A
C414       C1204   1.497       .  S
Cr415       O418   1.774       .  S
Cr416       O418   1.776       .  S
Cr417       O418   1.757       .  S
O419       Cr437   1.981       .  S
O419        C427   1.262       .  A
O420       Cr437   1.985       .  S
O420        C421   1.262       .  A
C421        O422   1.260       .  A
C421       C1174   1.483       .  S
O422       Cr438   1.993       .  S
O423       Cr438   2.013       .  S
O423        C424   1.265       .  A
C424        O425   1.260       .  A
C424       C1867   1.492       .  S
O425       Cr439   1.991       .  S
O426       Cr439   2.002       .  S
O426        C427   1.266       .  A
C427       C1227   1.468       .  S
O428       Cr437   1.995       .  S
O428        C436   1.264       .  A
O429       Cr437   1.989       .  S
O429        C430   1.263       .  A
C430        O431   1.266       .  A
C430       C1187   1.478       .  S
O431       Cr438   2.006       .  S
O432       Cr438   1.996       .  S
O432        C433   1.265       .  A
C433        O434   1.264       .  A
C433       C1247   1.477       .  S
O434       Cr439   1.978       .  S
O435       Cr439   1.992       .  S
O435        C436   1.260       .  A
C436       C1164   1.487       .  S
Cr437       O440   1.762       .  S
Cr438       O440   1.781       .  S
Cr439       O440   1.773       .  S
O441       Cr459   1.973       .  S
O441        C449   1.259       .  A
O442       Cr459   1.970       .  S
O442        C443   1.257       .  A
C443        O444   1.264       .  A
C443       C1217   1.476       .  S
O444       Cr460   2.021       .  S
O445       Cr460   2.006       .  S
O445        C446   1.270       .  A
C446        O447   1.271       .  A
C446       C1644   1.493       .  S
O447       Cr461   2.009       .  S
O448       Cr461   1.997       .  S
O448        C449   1.264       .  A
C449       C1154   1.462       .  S
O450       Cr459   1.962       .  S
O450        C458   1.259       .  A
O451       Cr459   1.994       .  S
O451        C452   1.263       .  A
C452        O453   1.261       .  A
C452       C1167   1.471       .  S
O453       Cr460   1.999       .  S
O454       Cr460   1.990       .  S
O454        C455   1.260       .  A
C455        O456   1.264       .  A
C455       C1287   1.480       .  S
O456       Cr461   1.999       .  S
O457       Cr461   2.014       .  S
O457        C458   1.265       .  A
C458       C1144   1.489       .  S
Cr459       O462   1.758       .  S
Cr460       O462   1.780       .  S
Cr461       O462   1.772       .  S
O463       Cr481   2.007       .  S
O463        C471   1.266       .  A
O464       Cr481   1.997       .  S
O464        C465   1.263       .  A
C465        O466   1.264       .  A
C465       C1134   1.488       .  S
O466       Cr482   2.007       .  S
O467       Cr482   1.989       .  S
O467        C468   1.260       .  A
C468        O469   1.263       .  A
C468       C1157   1.478       .  S
O469       Cr483   1.988       .  S
O470       Cr483   1.981       .  S
O470        C471   1.261       .  A
C471       C1114   1.474       .  S
O472       Cr481   1.996       .  S
O472        C480   1.261       .  A
O473       Cr481   1.992   1_556  S
O473        C474   1.264       .  A
C474        O475   1.263       .  A
C474       C1357   1.473       .  S
O475       Cr482   2.000   1_556  S
O476       Cr482   2.017       .  S
O476        C477   1.270       .  A
C477        O478   1.262       .  A
C477       C1207   1.483       .  S
O478       Cr483   1.989       .  S
O479       Cr483   1.999       .  S
O479        C480   1.265       .  A
C480       C1127   1.489       .  S
Cr481       O484   1.774       .  S
Cr482       O484   1.783       .  S
Cr483       O484   1.763       .  S
O485       Cr503   2.006       .  S
O485        C493   1.266       .  A
O486       Cr503   2.018       .  S
O486        C487   1.271       .  A
C487        O488   1.265       .  A
C487       C1104   1.487       .  S
O488       Cr504   1.989       .  S
O489       Cr504   2.003       .  S
O489        C490   1.264       .  A
C490        O491   1.261       .  A
C490       C1097   1.480       .  S
O491       Cr505   1.981       .  S
O492       Cr505   1.973       .  S
O492        C493   1.258       .  A
C493       C1177   1.467       .  S
O494       Cr503   2.021       .  S
O494        C502   1.268       .  A
O495       Cr503   1.998   1_556  S
O495        C496   1.265       .  A
C496        O497   1.258   1_556  A
C496       C1267   1.489       .  S
O497       Cr504   1.988       .  S
O498       Cr504   2.008       .  S
O498        C499   1.264       .  A
C499        O500   1.261       .  A
C499       C1124   1.472       .  S
O500       Cr505   1.990       .  S
O501       Cr505   1.973       .  S
O501        C502   1.262       .  A
C502       C1237   1.493       .  S
Cr503       O506   1.769       .  S
Cr504       O506   1.773       .  S
Cr505       O506   1.757       .  S
O507       Cr525   1.949       .  S
O507        C515   1.254       .  A
O508       Cr525   1.995       .  S
O508        C509   1.260       .  A
C509        O510   1.254       .  A
C509       C1117   1.470       .  S
O510       Cr526   1.983       .  S
O511       Cr526   2.033       .  S
O511        C512   1.273       .  A
C512        O513   1.259       .  A
C512       C1707   1.476       .  S
O513       Cr527   1.960       .  S
O514       Cr527   2.051       .  S
O514        C515   1.275       .  A
C515       C1094   1.468       .  S
O516       Cr525   2.003       .  S
O516        C524   1.262       .  A
O517       Cr525   1.935       .  S
O517        C518   1.254       .  A
C518        O519   1.278       .  A
C518       C1147   1.489       .  S
O519       Cr526   2.053       .  S
O520       Cr526   1.953       .  S
O520        C521   1.253       .  A
C521        O522   1.274       .  A
C521       C1394   1.498       .  S
O522       Cr527   2.040       .  S
O523       Cr527   2.003       .  S
O523        C524   1.263       .  A
C524       C1184   1.475       .  S
Cr525       O528   1.748       .  S
Cr526       O528   1.772       .  S
Cr527       O528   1.773       .  S
O529       Cr547   2.002       .  S
O529        C537   1.266       .  A
O530       Cr547   2.024       .  S
O530        C531   1.271       .  A
C531        O532   1.265       .  A
C531       C1807   1.487       .  S
O532       Cr548   1.990       .  S
O533       Cr548   2.025   1_455  S
O533        C534   1.268       .  A
C534        O535   1.259   1_455  A
C534       C1064   1.486       .  S
O535       Cr549   1.969       .  S
O536       Cr549   1.989       .  S
O536        C537   1.262       .  A
C537       C1054   1.469       .  S
O538       Cr547   2.036       .  S
O538        C546   1.268       .  A
O539       Cr547   1.993       .  S
O539        C540   1.264       .  A
C540        O541   1.266       .  A
C540       C1047   1.482       .  S
O541       Cr548   2.011       .  S
O542       Cr548   2.000   1_455  S
O542        C543   1.262       .  A
C543        O544   1.263       .  A
C543       C1084   1.472       .  S
O544       Cr549   1.994   1_455  S
O545       Cr549   1.966       .  S
O545        C546   1.258       .  A
C546       C1074   1.498       .  S
Cr547       O550   1.772       .  S
Cr548       O550   1.775       .  S
Cr549       O550   1.753       .  S
O551       Cr569   1.992       .  S
O551        C559   1.262       .  A
O552       Cr569   1.971       .  S
O552        C553   1.260       .  A
C553        O554   1.266       .  A
C553       C1014   1.478       .  S
O554       Cr570   2.014       .  S
O555       Cr570   1.996       .  S
O555        C556   1.266       .  A
C556        O557   1.269       .  A
C556       C1447   1.488       .  S
O557       Cr571   2.021       .  S
O558       Cr571   2.000       .  S
O558        C559   1.264       .  A
C559       C1067   1.471       .  S
O560       Cr569   1.963       .  S
O560        C568   1.258       .  A
O561       Cr569   1.999       .  S
O561        C562   1.263       .  A
C562        O563   1.267       .  A
C562       C1034   1.485       .  S
O563       Cr570   2.017       .  S
O564       Cr570   1.997       .  S
O564        C565   1.263       .  A
C565        O566   1.262       .  A
C565       C1007   1.471       .  S
O566       Cr571   1.989       .  S
O567       Cr571   2.023       .  S
O567        C568   1.267       .  A
C568       C1027   1.487       .  S
Cr569       O572   1.752       .  S
Cr570       O572   1.769       .  S
Cr571       O572   1.773       .  S
O573       Cr591   2.003       .  S
O573        C581   1.264       .  A
O574       Cr591   2.014       .  S
O574        C575   1.266       .  A
C575        O576   1.261       .  A
C575       C1664   1.479       .  S
O576       Cr592   1.989   1_545  S
O577       Cr592   1.988       .  S
O577        C578   1.261       .  A
C578        O579   1.262   1_565  A
C578        C984   1.477       .  S
O579       Cr593   1.985       .  S
O580       Cr593   1.983       .  S
O580        C581   1.261       .  A
C581       C1017   1.467       .  S
O582       Cr591   2.021       .  S
O582        C590   1.268       .  A
O583       Cr591   1.989       .  S
O583        C584   1.265       .  A
C584        O585   1.263       .  A
C584        C974   1.477       .  S
O585       Cr592   1.990   1_545  S
O586       Cr592   2.001       .  S
O586        C587   1.265       .  A
C587        O588   1.262       .  A
C587        C994   1.474       .  S
O588       Cr593   1.993   1_565  S
O589       Cr593   1.981       .  S
O589        C590   1.263       .  A
C590       C1087   1.488       .  S
Cr591       O594   1.775       .  S
Cr592       O594   1.771   1_565  S
Cr593       O594   1.758       .  S
O595       Cr613   1.976       .  S
O595        C603   1.258       .  A
O596       Cr613   1.992       .  S
O596        C597   1.264   1_565  A
C597        O598   1.265       .  A
C597       C1057   1.490       .  S
O598       Cr614   2.007       .  S
O599       Cr614   1.988   1_565  S
O599        C600   1.263       .  A
C600        O601   1.268       .  A
C600       C1254   1.477       .  S
O601       Cr615   2.012       .  S
O602       Cr615   2.006       .  S
O602        C603   1.264       .  A
C603        C957   1.466       .  S
O604       Cr613   1.976       .  S
O604        C612   1.262       .  A
O605       Cr613   1.983   1_545  S
O605        C606   1.260       .  A
C606        O607   1.263       .  A
C606       C1024   1.474       .  S
O607       Cr614   2.001       .  S
O608       Cr614   2.000   1_565  S
O608        C609   1.264       .  A
C609        O610   1.265       .  A
C609        C944   1.485       .  S
O610       Cr615   1.998       .  S
O611       Cr615   2.025       .  S
O611        C612   1.267       .  A
C612        C964   1.483       .  S
Cr613       O616   1.755       .  S
Cr614       O616   1.775   1_545  S
Cr615       O616   1.778       .  S
O617       Cr635   2.012       .  S
O617        C625   1.267       .  A
O618       Cr635   2.007       .  S
O618        C619   1.266       .  A
C619        O620   1.271       .  A
C619       C1714   1.491       .  S
O620       Cr636   2.014       .  S
O621       Cr636   1.989       .  S
O621        C622   1.258       .  A
C622        O623   1.265       .  A
C622        C954   1.483       .  S
O623       Cr637   2.005       .  S
O624       Cr637   1.976       .  S
O624        C625   1.259       .  A
C625        C934   1.472       .  S
O626       Cr635   2.011       .  S
O626        C634   1.264       .  A
O627       Cr635   2.008       .  S
O627        C628   1.267       .  A
C628        O629   1.258       .  A
C628        C927   1.483       .  S
O629       Cr636   1.983       .  S
O630       Cr636   2.023       .  S
O630        C631   1.270       .  A
C631        O632   1.262       .  A
C631       C1077   1.488       .  S
O632       Cr637   1.986       .  S
O633       Cr637   1.988       .  S
O633        C634   1.262       .  A
C634        C997   1.483       .  S
Cr635       O638   1.780       .  S
Cr636       O638   1.774       .  S
Cr637       O638   1.760       .  S
O639       Cr657   1.955       .  S
O639        C647   1.261       .  A
O640       Cr657   2.021   1_655  S
O640        C641   1.262       .  A
C641        O642   1.250       .  A
C641        C937   1.477       .  S
O642       Cr658   1.981       .  S
O643       Cr658   2.046       .  S
O643        C644   1.273   1_655  A
C644        O645   1.258       .  A
C644       C1307   1.502       .  S
O645       Cr659   1.964       .  S
O646       Cr659   2.036       .  S
O646        C647   1.274       .  A
C647        C987   1.465       .  S
O648       Cr657   2.019       .  S
O648        C656   1.264       .  A
O649       Cr657   1.944   1_655  S
O649        C650   1.260       .  A
C650        O651   1.283       .  A
C650        C967   1.491       .  S
O651       Cr658   2.064       .  S
O652       Cr658   1.949       .  S
O652        C653   1.253       .  A
C653        O654   1.272   1_655  A
C653        C914   1.489       .  S
O654       Cr659   2.032       .  S
O655       Cr659   2.002       .  S
O655        C656   1.261       .  A
C656       C1037   1.488       .  S
Cr657       O660   1.761       .  S
Cr658       O660   1.779   1_655  S
Cr659       O660   1.778       .  S
O661       Cr679   1.980       .  S
O661        C669   1.259       .  A
O662       Cr679   1.977       .  S
O662        C663   1.260   1_655  A
C663        O664   1.264       .  A
C663        C894   1.478       .  S
O664       Cr680   2.012       .  S
O665       Cr680   1.998   1_655  S
O665        C666   1.266       .  A
C666        O667   1.269       .  A
C666       C1457   1.487       .  S
O667       Cr681   2.003       .  S
O668       Cr681   2.001       .  S
O668        C669   1.263       .  A
C669        C874   1.466       .  S
O670       Cr679   1.973       .  S
O670        C678   1.262       .  A
O671       Cr679   1.995   1_455  S
O671        C672   1.262       .  A
C672        O673   1.265       .  A
C672        C904   1.476       .  S
O673       Cr680   2.008       .  S
O674       Cr680   1.997   1_655  S
O674        C675   1.262       .  A
C675        O676   1.264       .  A
C675        C917   1.491       .  S
O676       Cr681   1.992       .  S
O677       Cr681   2.021       .  S
O677        C678   1.267       .  A
C678        C884   1.495       .  S
Cr679       O682   1.758       .  S
Cr680       O682   1.779   1_455  S
Cr681       O682   1.771       .  S
O683       Cr701   2.002       .  S
O683        C691   1.263       .  A
O684       Cr701   2.009       .  S
O684        C685   1.268       .  A
C685        O686   1.268       .  A
C685       C1194   1.489       .  S
O686       Cr702   2.005   1_565  S
O687       Cr702   2.006       .  S
O687        C688   1.264       .  A
C688        O689   1.267   1_545  A
C688        C854   1.489       .  S
O689       Cr703   1.992       .  S
O690       Cr703   1.974       .  S
O690        C691   1.258       .  A
C691        C897   1.465       .  S
O692       Cr701   2.024       .  S
O692        C700   1.268       .  A
O693       Cr701   1.987       .  S
O693        C694   1.263       .  A
C694        O695   1.261   1_565  A
C694        C977   1.474       .  S
O695       Cr702   1.988       .  S
O696       Cr702   2.025       .  S
O696        C697   1.268       .  A
C697        O698   1.257       .  A
C697        C864   1.483       .  S
O698       Cr703   1.974   1_545  S
O699       Cr703   1.986       .  S
O699        C700   1.263       .  A
C700        C844   1.489       .  S
Cr701       O704   1.775       .  S
Cr702       O704   1.773   1_545  S
Cr703       O704   1.755       .  S
O705       Cr723   1.989       .  S
O705        C713   1.263       .  A
O706       Cr723   1.982       .  S
O706        C707   1.262       .  A
C707        O708   1.263       .  A
C707        C824   1.487       .  S
O708       Cr724   2.003       .  S
O709       Cr724   1.994       .  S
O709        C710   1.262       .  A
C710        O711   1.267       .  A
C710       C1627   1.487       .  S
O711       Cr725   2.011       .  S
O712       Cr725   2.007       .  S
O712        C713   1.268       .  A
C713        C857   1.473       .  S
O714       Cr723   1.992       .  S
O714        C722   1.263       .  A
O715       Cr723   1.991       .  S
O715        C716   1.263       .  A
C716        O717   1.264       .  A
C716        C834   1.472       .  S
O717       Cr724   1.998       .  S
O718       Cr724   2.001       .  S
O718        C719   1.263       .  A
C719        O720   1.263       .  A
C719       C1004   1.471       .  S
O720       Cr725   1.989       .  S
O721       Cr725   2.012       .  S
O721        C722   1.264       .  A
C722        C907   1.492       .  S
Cr723       O726   1.757       .  S
Cr724       O726   1.781       .  S
Cr725       O726   1.772       .  S
O727       Cr745   1.984       .  S
O727        C735   1.258       .  A
O728       Cr745   1.982       .  S
O728        C729   1.265   1_545  A
C729        O730   1.266       .  A
C729        C804   1.491       .  S
O730       Cr746   2.010       .  S
O731       Cr746   2.002   1_545  S
O731        C732   1.266       .  A
C732        O733   1.266       .  A
C732       C1507   1.486       .  S
O733       Cr747   2.009       .  S
O734       Cr747   2.015       .  S
O734        C735   1.266       .  A
C735        C817   1.474       .  S
O736       Cr745   1.974       .  S
O736        C744   1.260       .  A
O737       Cr745   1.978   1_565  S
O737        C738   1.259       .  A
C738        O739   1.268       .  A
C738        C887   1.483       .  S
O739       Cr746   2.021       .  S
O740       Cr746   2.000   1_545  S
O740        C741   1.265       .  A
C741        O742   1.268       .  A
C741        C947   1.496       .  S
O742       Cr747   2.004       .  S
O743       Cr747   2.029       .  S
O743        C744   1.269       .  A
C744        C837   1.483       .  S
Cr745       O748   1.756       .  S
Cr746       O748   1.771   1_565  S
Cr747       O748   1.774       .  S
O749       Cr767   2.007       .  S
O749        C757   1.266       .  A
O750       Cr767   2.007       .  S
O750        C751   1.270       .  A
C751        O752   1.267       .  A
C751       C1137   1.485       .  S
O752       Cr768   1.993   1_455  S
O753       Cr768   2.025       .  S
O753        C754   1.266       .  A
C754        O755   1.260       .  A
C754        C814   1.483       .  S
O755       Cr769   1.981   1_655  S
O756       Cr769   1.975       .  S
O756        C757   1.260       .  A
C757        C827   1.470       .  S
O758       Cr767   2.006       .  S
O758        C766   1.263       .  A
O759       Cr767   2.000       .  S
O759        C760   1.263       .  A
C760        O761   1.262   1_455  A
C760       C1044   1.482       .  S
O761       Cr768   2.002       .  S
O762       Cr768   1.997       .  S
O762        C763   1.262       .  A
C763        O764   1.262       .  A
C763        C797   1.467       .  S
O764       Cr769   1.991   1_655  S
O765       Cr769   1.979       .  S
O765        C766   1.263       .  A
C766        C867   1.492       .  S
Cr767       O770   1.770       .  S
Cr768       O770   1.780   1_655  S
Cr769       O770   1.759       .  S
O771       Cr789   2.026       .  S
O771        C779   1.272       .  A
O772       Cr789   2.006       .  S
O772        C773   1.263       .  A
C773        O774   1.264       .  A
C773       C1107   1.478       .  S
O774       Cr790   2.000       .  S
O775       Cr790   1.995       .  S
O775        C776   1.262       .  A
C776        O777   1.263       .  A
C776        C877   1.481       .  S
O777       Cr791   1.988       .  S
O778       Cr791   1.965       .  S
O778        C779   1.257       .  A
C779        C807   1.479       .  S
O780       Cr789   1.997       .  S
O780        C788   1.263       .  A
O781       Cr789   2.003       .  S
O781        C782   1.266       .  A
C782        O783   1.262       .  A
C782        C924   1.484       .  S
O783       Cr790   1.990       .  S
O784       Cr790   2.012       .  S
O784        C785   1.266       .  A
C785        O786   1.259       .  A
C785        C847   1.476       .  S
O786       Cr791   1.980       .  S
O787       Cr791   1.992       .  S
O787        C788   1.265       .  A
C788        C794   1.485       .  S
Cr789       O792   1.779       .  S
Cr790       O792   1.777       .  S
Cr791       O792   1.763       .  S
C793        C794   1.415   1_545  A
C793        C798   1.399       .  A
C793        F800   1.358   1_545  S
C794        C795   1.404   1_565  A
C795        C796   1.398       .  A
C795        F802   1.355   1_545  S
C796        C797   1.405       .  A
C796        F801   1.356       .  S
C797        C798   1.398       .  A
C798        F799   1.358       .  S
C803        C804   1.405   1_554  A
C803        C808   1.393       .  A
C803        F810   1.358   1_565  S
C804        C805   1.417       .  A
C805        C806   1.407   1_556  A
C805        F812   1.357       .  S
C806        C807   1.402       .  A
C806        F811   1.356       .  S
C807        C808   1.410       .  A
C808        F809   1.356       .  S
C813        C814   1.405   1_556  A
C813        C818   1.400       .  A
C813        F820   1.358       .  S
C814        C815   1.409       .  A
C815        C816   1.405   1_554  A
C815        F822   1.358       .  S
C816        C817   1.406       .  A
C816        F821   1.358       .  S
C817        C818   1.405       .  A
C818        F819   1.357       .  S
C823        C824   1.407   1_554  A
C823        C828   1.395       .  A
C823        F830   1.358       .  S
C824        C825   1.415       .  A
C825        C826   1.405   1_556  A
C825        F832   1.358       .  S
C826        C827   1.403       .  A
C826        F831   1.358       .  S
C827        C828   1.405       .  A
C828        F829   1.359       .  S
C833        C834   1.403       .  A
C833        C838   1.397   1_455  A
C833        F840   1.356       .  S
C834        C835   1.404       .  A
C835        C836   1.405   1_455  A
C835        F842   1.358       .  S
C836        C837   1.410       .  A
C836        F841   1.357       .  S
C837        C838   1.406       .  A
C838        F839   1.357       .  S
C843        C844   1.406   1_655  A
C843        C848   1.399       .  A
C843        F850   1.357   1_655  S
C844        C845   1.411   1_455  A
C845        C846   1.406       .  A
C845        F852   1.355       .  S
C846        C847   1.404       .  A
C846        F851   1.357       .  S
C847        C848   1.405       .  A
C848        F849   1.356       .  S
C853        C854   1.404   1_556  A
C853        C858   1.395       .  A
C853        F860   1.358   1_545  S
C854        C855   1.417       .  A
C855        C856   1.405   1_554  A
C855        F862   1.358       .  S
C856        C857   1.402       .  A
C856        F861   1.358       .  S
C857        C858   1.405       .  A
C858        F859   1.354       .  S
C863        C864   1.410       .  A
C863        C868   1.390       .  A
C863        F870   1.355       .  S
C864        C865   1.403       .  A
C865        C866   1.410       .  A
C865        F872   1.357       .  S
C866        C867   1.418       .  A
C866        F871   1.357       .  S
C867        C868   1.405       .  A
C868        F869   1.358       .  S
C873        C874   1.401       .  A
C873        C878   1.401   1_556  A
C873        F880   1.358       .  S
C874        C875   1.405       .  A
C875        C876   1.398       .  A
C875        F882   1.358       .  S
C876        C877   1.406   1_556  A
C876        F881   1.358       .  S
C877        C878   1.412       .  A
C878        F879   1.358       .  S
C883        C884   1.418       .  A
C883        C888   1.412       .  A
C883        F890   1.357       .  S
C884        C885   1.408       .  A
C885        C886   1.390       .  A
C885        F892   1.357       .  S
C886        C887   1.407       .  A
C886        F891   1.356       .  S
C887        C888   1.405       .  A
C888        F889   1.357       .  S
C893        C894   1.410       .  A
C893        C898   1.403   1_556  A
C893        F900   1.358       .  S
C894        C895   1.404   1_556  A
C895        C896   1.394       .  A
C895        F902   1.358   1_455  S
C896        C897   1.404       .  A
C896        F901   1.356       .  S
C897        C898   1.403       .  A
C898        F899   1.358       .  S
C903        C904   1.402       .  A
C903        C908   1.405       .  A
C903        F910   1.358       .  S
C904        C905   1.405       .  A
C905        C906   1.401       .  A
C905        F912   1.356       .  S
C906        C907   1.406   1_565  A
C906        F911   1.356   1_565  S
C907        C908   1.414   1_545  A
C908        F909   1.357   1_565  S
C913        C914   1.414       .  A
C913        C918   1.398       .  A
C913        F920   1.359       .  S
C914        C915   1.404   1_655  A
C915        C916   1.404       .  A
C915        F922   1.357       .  S
C916        C917   1.415   1_455  A
C916        F921   1.358       .  S
C917        C918   1.406       .  A
C918        F919   1.358       .  S
C923        C924   1.413       .  A
C923        C928   1.400       .  A
C923        F930   1.357       .  S
C924        C925   1.404       .  A
C925        C926   1.403       .  A
C925        F932   1.358       .  S
C926        C927   1.414       .  A
C926        F931   1.358       .  S
C927        C928   1.400       .  A
C928        F929   1.357       .  S
C933        C934   1.403       .  A
C933        C938   1.397       .  A
C933        F940   1.355       .  S
C934        C935   1.407       .  A
C935        C936   1.407       .  A
C935        F942   1.357       .  S
C936        C937   1.406       .  A
C936        F941   1.357       .  S
C937        C938   1.402       .  A
C938        F939   1.357       .  S
C943        C944   1.410   1_545  A
C943        C948   1.404       .  A
C943        F950   1.357       .  S
C944        C945   1.402       .  A
C945        C946   1.403       .  A
C945        F952   1.358       .  S
C946        C947   1.416   1_565  A
C946        F951   1.358       .  S
C947        C948   1.409       .  A
C948        F949   1.358       .  S
C953        C954   1.412       .  A
C953        C958   1.399       .  A
C953        F960   1.358       .  S
C954        C955   1.403       .  A
C955        C956   1.400       .  A
C955        F962   1.354       .  S
C956        C957   1.405       .  A
C956        F961   1.354       .  S
C957        C958   1.401       .  A
C958        F959   1.357       .  S
C963        C964   1.400       .  A
C963        C968   1.394       .  A
C963        F970   1.358       .  S
C964        C965   1.410       .  A
C965        C966   1.408       .  A
C965        F972   1.354       .  S
C966        C967   1.407       .  A
C966        F971   1.356       .  S
C967        C968   1.412       .  A
C968        F969   1.354       .  S
C973        C974   1.404       .  A
C973        C978   1.399       .  A
C973        F980   1.358       .  S
C974        C975   1.411   1_545  A
C975        C976   1.396       .  A
C975        F982   1.358       .  S
C976        C977   1.401       .  A
C976        F981   1.358       .  S
C977        C978   1.410   1_565  A
C978        F979   1.358       .  S
C983        C984   1.406       .  A
C983        C988   1.397       .  A
C983        F990   1.358   1_565  S
C984        C985   1.410       .  A
C985        C986   1.394       .  A
C985        F992   1.358       .  S
C986        C987   1.401       .  A
C986        F991   1.358       .  S
C987        C988   1.404       .  A
C988        F989   1.355       .  S
C993        C994   1.404       .  A
C993        C998   1.400   1_455  A
C993       F1000   1.355       .  S
C994        C995   1.404       .  A
C995        C996   1.404   1_455  A
C995       F1002   1.358       .  S
C996        C997   1.409       .  A
C996       F1001   1.357       .  S
C997        C998   1.405       .  A
C998        F999   1.357       .  S
C1003      C1004   1.406       .  A
C1003      C1008   1.400       .  A
C1003      F1010   1.358       .  S
C1004      C1005   1.404       .  A
C1005      C1006   1.398       .  A
C1005      F1012   1.358       .  S
C1006      C1007   1.406       .  A
C1006      F1011   1.358       .  S
C1007      C1008   1.405       .  A
C1008      F1009   1.358       .  S
C1013      C1014   1.405       .  A
C1013      C1018   1.394       .  A
C1013      F1020   1.358       .  S
C1014      C1015   1.409       .  A
C1015      C1016   1.403       .  A
C1015      F1022   1.358       .  S
C1016      C1017   1.404       .  A
C1016      F1021   1.357       .  S
C1017      C1018   1.404       .  A
C1018      F1019   1.357       .  S
C1023      C1024   1.404       .  A
C1023      C1028   1.408       .  A
C1023      F1030   1.357       .  S
C1024      C1025   1.404       .  A
C1025      C1026   1.386       .  A
C1025      F1032   1.356       .  S
C1026      C1027   1.408   1_655  A
C1026      F1031   1.358   1_655  S
C1027      C1028   1.415   1_455  A
C1028      F1029   1.357       .  S
C1033      C1034   1.407       .  A
C1033      C1038   1.404       .  A
C1033      F1040   1.357       .  S
C1034      C1035   1.405       .  A
C1035      C1036   1.409       .  A
C1035      F1042   1.357       .  S
C1036      C1037   1.408   1_545  A
C1036      F1041   1.357   1_545  S
C1037      C1038   1.404   1_565  A
C1038      F1039   1.353   1_545  S
C1043      C1044   1.407   1_655  A
C1043      C1048   1.403       .  A
C1043      F1050   1.358   1_655  S
C1044      C1045   1.408   1_455  A
C1045      C1046   1.403       .  A
C1045      F1052   1.358   1_655  S
C1046      C1047   1.406       .  A
C1046      F1051   1.358       .  S
C1047      C1048   1.407       .  A
C1048      F1049   1.358       .  S
C1053      C1054   1.402       .  A
C1053      C1058   1.403       .  A
C1053      F1060   1.358       .  S
C1054      C1055   1.405       .  A
C1055      C1056   1.399       .  A
C1055      F1062   1.358       .  S
C1056      C1057   1.408       .  A
C1056      F1061   1.357   1_545  S
C1057      C1058   1.415       .  A
C1058      F1059   1.358       .  S
C1063      C1064   1.412       .  A
C1063      C1068   1.405       .  A
C1063      F1070   1.358       .  S
C1064      C1065   1.409       .  A
C1065      C1066   1.396       .  A
C1065      F1072   1.358   1_455  S
C1066      C1067   1.403       .  A
C1066      F1071   1.359       .  S
C1067      C1068   1.404       .  A
C1068      F1069   1.358       .  S
C1073      C1074   1.409       .  A
C1073      C1078   1.390   1_545  A
C1073      F1080   1.358       .  S
C1074      C1075   1.417   1_545  A
C1075      C1076   1.414       .  A
C1075      F1082   1.357   1_565  S
C1076      C1077   1.406       .  A
C1076      F1081   1.357       .  S
C1077      C1078   1.407       .  A
C1078      F1079   1.355       .  S
C1083      C1084   1.402       .  A
C1083      C1088   1.396       .  A
C1083      F1090   1.356       .  S
C1084      C1085   1.402       .  A
C1085      C1086   1.406       .  A
C1085      F1092   1.357       .  S
C1086      C1087   1.414       .  A
C1086      F1091   1.357       .  S
C1087      C1088   1.406       .  A
C1088      F1089   1.355       .  S
C1093      C1094   1.404       .  A
C1093      C1098   1.398       .  A
C1093      F1100   1.358       .  S
C1094      C1095   1.404       .  A
C1095      C1096   1.398       .  A
C1095      F1102   1.355       .  S
C1096      C1097   1.407       .  A
C1096      F1101   1.358       .  S
C1097      C1098   1.409       .  A
C1098      F1099   1.358       .  S
C1103      C1104   1.410       .  A
C1103      C1108   1.406       .  A
C1103      F1110   1.358       .  S
C1104      C1105   1.409       .  A
C1105      C1106   1.401       .  A
C1105      F1112   1.358       .  S
C1106      C1107   1.403       .  A
C1106      F1111   1.357       .  S
C1107      C1108   1.406       .  A
C1108      F1109   1.358       .  S
C1113      C1114   1.408       .  A
C1113      C1118   1.391       .  A
C1113      F1120   1.356       .  S
C1114      C1115   1.406       .  A
C1115      C1116   1.407       .  A
C1115      F1122   1.357       .  S
C1116      C1117   1.407       .  A
C1116      F1121   1.357       .  S
C1117      C1118   1.399       .  A
C1118      F1119   1.359       .  S
C1123      C1124   1.405       .  A
C1123      C1128   1.402       .  A
C1123      F1130   1.355   1_554  S
C1124      C1125   1.400       .  A
C1125      C1126   1.401       .  A
C1125      F1132   1.358       .  S
C1126      C1127   1.415       .  A
C1126      F1131   1.358       .  S
C1127      C1128   1.405       .  A
C1128      F1129   1.357   1_554  S
C1133      C1134   1.408       .  A
C1133      C1138   1.394       .  A
C1133      F1140   1.357       .  S
C1134      C1135   1.409       .  A
C1135      C1136   1.411       .  A
C1135      F1142   1.357       .  S
C1136      C1137   1.409       .  A
C1136      F1141   1.357       .  S
C1137      C1138   1.406       .  A
C1138      F1139   1.358       .  S
C1143      C1144   1.407       .  A
C1143      C1148   1.388       .  A
C1143      F1150   1.358       .  S
C1144      C1145   1.414       .  A
C1145      C1146   1.407       .  A
C1145      F1152   1.357       .  S
C1146      C1147   1.407       .  A
C1146      F1151   1.357       .  S
C1147      C1148   1.415       .  A
C1148      F1149   1.359       .  S
C1153      C1154   1.401       .  A
C1153      C1158   1.399       .  A
C1153      F1160   1.358       .  S
C1154      C1155   1.405       .  A
C1155      C1156   1.397       .  A
C1155      F1162   1.358       .  S
C1156      C1157   1.405       .  A
C1156      F1161   1.358       .  S
C1157      C1158   1.412       .  A
C1158      F1159   1.358       .  S
C1163      C1164   1.416       .  A
C1163      C1168   1.399       .  A
C1163      F1170   1.358       .  S
C1164      C1165   1.405       .  A
C1165      C1166   1.401       .  A
C1165      F1172   1.357       .  S
C1166      C1167   1.407       .  A
C1166      F1171   1.356       .  S
C1167      C1168   1.397       .  A
C1168      F1169   1.357       .  S
C1173      C1174   1.406       .  A
C1173      C1178   1.395       .  A
C1173      F1180   1.359       .  S
C1174      C1175   1.413       .  A
C1175      C1176   1.402       .  A
C1175      F1182   1.358       .  S
C1176      C1177   1.401       .  A
C1176      F1181   1.358       .  S
C1177      C1178   1.407       .  A
C1178      F1179   1.359       .  S
C1183      C1184   1.407       .  A
C1183      C1188   1.405       .  A
C1183      F1190   1.357       .  S
C1184      C1185   1.403       .  A
C1185      C1186   1.401       .  A
C1185      F1192   1.358       .  S
C1186      C1187   1.408       .  A
C1186      F1191   1.357       .  S
C1187      C1188   1.404       .  A
C1188      F1189   1.357       .  S
C1193      C1194   1.408       .  A
C1193      C1198   1.406       .  A
C1193      F1200   1.358       .  S
C1194      C1195   1.410       .  A
C1195      C1196   1.404       .  A
C1195      F1202   1.358       .  S
C1196      C1197   1.406       .  A
C1196      F1201   1.358       .  S
C1197      C1198   1.408       .  A
C1198      F1199   1.358       .  S
C1203      C1204   1.412       .  A
C1203      C1208   1.411       .  A
C1203      F1210   1.355       .  S
C1204      C1205   1.407       .  A
C1205      C1206   1.402       .  A
C1205      F1212   1.356   1_554  S
C1206      C1207   1.405       .  A
C1206      F1211   1.357   1_554  S
C1207      C1208   1.407       .  A
C1208      F1209   1.358       .  S
C1213      C1214   1.402       .  A
C1213      C1218   1.395       .  A
C1213      F1220   1.355       .  S
C1214      C1215   1.406       .  A
C1215      C1216   1.404       .  A
C1215      F1222   1.358       .  S
C1216      C1217   1.409       .  A
C1216      F1221   1.358       .  S
C1217      C1218   1.404       .  A
C1218      F1219   1.358       .  S
C1223      C1224   1.415       .  A
C1223      C1228   1.405       .  A
C1223      F1230   1.357       .  S
C1224      C1225   1.407       .  A
C1225      C1226   1.391       .  A
C1225      F1232   1.358       .  S
C1226      C1227   1.404       .  A
C1226      F1231   1.356       .  S
C1227      C1228   1.401       .  A
C1228      F1229   1.358       .  S
C1233      C1234   1.403       .  A
C1233      C1238   1.409       .  A
C1233      F1240   1.357       .  S
C1234      C1235   1.403       .  A
C1235      C1236   1.390       .  A
C1235      F1242   1.355       .  S
C1236      C1237   1.408       .  A
C1236      F1241   1.356       .  S
C1237      C1238   1.417       .  A
C1238      F1239   1.357       .  S
C1243      C1244   1.405       .  A
C1243      C1248   1.393       .  A
C1243      F1250   1.357       .  S
C1244      C1245   1.399       .  A
C1245      C1246   1.398       .  A
C1245      F1252   1.358       .  S
C1246      C1247   1.413       .  A
C1246      F1251   1.358       .  S
C1247      C1248   1.405       .  A
C1248      F1249   1.358       .  S
C1253      C1254   1.404       .  A
C1253      C1258   1.402       .  A
C1253      F1260   1.357       .  S
C1254      C1255   1.406       .  A
C1255      C1256   1.402       .  A
C1255      F1262   1.358       .  S
C1256      C1257   1.408       .  A
C1256      F1261   1.358       .  S
C1257      C1258   1.408       .  A
C1258      F1259   1.358       .  S
C1263      C1264   1.410       .  A
C1263      C1268   1.396       .  A
C1263      F1270   1.359       .  S
C1264      C1265   1.399       .  A
C1265      C1266   1.403       .  A
C1265      F1272   1.358       .  S
C1266      C1267   1.419       .  A
C1266      F1271   1.358       .  S
C1267      C1268   1.406       .  A
C1268      F1269   1.358       .  S
C1273      C1274   1.403       .  A
C1273      C1278   1.399       .  A
C1273      F1280   1.358       .  S
C1274      C1275   1.406       .  A
C1275      C1276   1.397       .  A
C1275      F1282   1.357       .  S
C1276      C1277   1.401       .  A
C1276      F1281   1.358       .  S
C1277      C1278   1.404       .  A
C1278      F1279   1.358       .  S
C1283      C1284   1.421       .  A
C1283      C1288   1.398       .  A
C1283      F1290   1.358       .  S
C1284      C1285   1.406       .  A
C1285      C1286   1.403       .  A
C1285      F1292   1.357       .  S
C1286      C1287   1.411       .  A
C1286      F1291   1.357       .  S
C1287      C1288   1.398       .  A
C1288      F1289   1.358       .  S
C1293      C1294   1.409       .  A
C1293      C1298   1.411       .  A
C1293      F1300   1.357       .  S
C1294      C1295   1.401       .  A
C1295      C1296   1.387       .  A
C1295      F1302   1.358       .  S
C1296      C1297   1.407       .  A
C1296      F1301   1.357       .  S
C1297      C1298   1.409       .  A
C1298      F1299   1.357       .  S
C1303      C1304   1.405       .  A
C1303      C1308   1.398       .  A
C1303      F1310   1.358       .  S
C1304      C1305   1.414       .  A
C1305      C1306   1.419       .  A
C1305      F1312   1.357       .  S
C1306      C1307   1.411       .  A
C1306      F1311   1.357       .  S
C1307      C1308   1.411       .  A
C1308      F1309   1.358       .  S
C1313      C1314   1.411       .  A
C1313      C1318   1.400       .  A
C1313      F1320   1.357       .  S
C1314      C1315   1.403       .  A
C1315      C1316   1.402       .  A
C1315      F1322   1.358       .  S
C1316      C1317   1.413       .  A
C1316      F1321   1.358       .  S
C1317      C1318   1.404       .  A
C1318      F1319   1.358       .  S
C1323      C1324   1.406       .  A
C1323      C1328   1.395       .  A
C1323      F1330   1.353       .  S
C1324      C1325   1.402       .  A
C1325      C1326   1.404       .  A
C1325      F1332   1.358       .  S
C1326      C1327   1.414       .  A
C1326      F1331   1.358       .  S
C1327      C1328   1.403       .  A
C1328      F1329   1.358       .  S
C1333      C1334   1.404       .  A
C1333      C1338   1.407       .  A
C1333      F1340   1.357       .  S
C1334      C1335   1.411       .  A
C1335      C1336   1.395       .  A
C1335      F1342   1.358       .  S
C1336      C1337   1.401       .  A
C1336      F1341   1.357       .  S
C1337      C1338   1.414       .  A
C1338      F1339   1.356       .  S
C1343      C1344   1.407       .  A
C1343      C1348   1.405       .  A
C1343      F1350   1.358       .  S
C1344      C1345   1.410       .  A
C1345      C1346   1.396       .  A
C1345      F1352   1.358       .  S
C1346      C1347   1.403       .  A
C1346      F1351   1.358       .  S
C1347      C1348   1.409       .  A
C1348      F1349   1.358       .  S
C1353      C1354   1.405       .  A
C1353      C1358   1.400       .  A
C1353      F1360   1.358       .  S
C1354      C1355   1.405       .  A
C1355      C1356   1.400       .  A
C1355      F1362   1.358       .  S
C1356      C1357   1.406       .  A
C1356      F1361   1.358       .  S
C1357      C1358   1.406       .  A
C1358      F1359   1.358       .  S
C1363      C1364   1.405       .  A
C1363      C1368   1.398       .  A
C1363      F1370   1.357       .  S
C1364      C1365   1.403       .  A
C1365      C1366   1.398       .  A
C1365      F1372   1.356       .  S
C1366      C1367   1.402       .  A
C1366      F1371   1.358       .  S
C1367      C1368   1.401       .  A
C1368      F1369   1.357       .  S
C1373      C1374   1.405       .  A
C1373      C1378   1.397       .  A
C1373      F1380   1.357       .  S
C1374      C1375   1.409       .  A
C1375      C1376   1.405       .  A
C1375      F1382   1.356       .  S
C1376      C1377   1.405       .  A
C1376      F1381   1.357       .  S
C1377      C1378   1.404       .  A
C1378      F1379   1.357       .  S
C1383      C1384   1.408       .  A
C1383      C1388   1.413       .  A
C1383      F1390   1.357       .  S
C1384      C1385   1.408       .  A
C1385      C1386   1.392       .  A
C1385      F1392   1.357       .  S
C1386      C1387   1.402       .  A
C1386      F1391   1.358       .  S
C1387      C1388   1.410       .  A
C1388      F1389   1.357       .  S
C1393      C1394   1.408       .  A
C1393      C1398   1.408       .  A
C1393      F1400   1.358       .  S
C1394      C1395   1.418       .  A
C1395      C1396   1.397       .  A
C1395      F1402   1.357       .  S
C1396      C1397   1.402       .  A
C1396      F1401   1.358       .  S
C1397      C1398   1.416       .  A
C1398      F1399   1.357       .  S
C1403      C1404   1.402       .  A
C1403      C1408   1.396       .  A
C1403      F1410   1.355       .  S
C1404      C1405   1.414       .  A
C1405      C1406   1.410       .  A
C1405      F1412   1.357       .  S
C1406      C1407   1.405       .  A
C1406      F1411   1.357       .  S
C1407      C1408   1.411       .  A
C1408      F1409   1.358       .  S
C1413      C1414   1.412       .  A
C1413      C1418   1.396       .  A
C1413      F1420   1.358       .  S
C1414      C1415   1.408       .  A
C1415      C1416   1.401       .  A
C1415      F1422   1.358       .  S
C1416      C1417   1.406       .  A
C1416      F1421   1.358       .  S
C1417      C1418   1.401       .  A
C1418      F1419   1.358       .  S
C1423      C1424   1.405       .  A
C1423      C1428   1.395       .  A
C1423      F1430   1.358       .  S
C1424      C1425   1.415       .  A
C1425      C1426   1.404       .  A
C1425      F1432   1.357       .  S
C1426      C1427   1.402       .  A
C1426      F1431   1.358       .  S
C1427      C1428   1.407       .  A
C1428      F1429   1.354       .  S
C1433      C1434   1.404       .  A
C1433      C1438   1.407       .  A
C1433      F1440   1.357       .  S
C1434      C1435   1.404       .  A
C1435      C1436   1.396       .  A
C1435      F1442   1.355       .  S
C1436      C1437   1.405       .  A
C1436      F1441   1.357       .  S
C1437      C1438   1.412       .  A
C1438      F1439   1.356       .  S
C1443      C1444   1.408       .  A
C1443      C1448   1.407       .  A
C1443      F1450   1.358       .  S
C1444      C1445   1.407       .  A
C1445      C1446   1.404       .  A
C1445      F1452   1.358       .  S
C1446      C1447   1.407       .  A
C1446      F1451   1.358       .  S
C1447      C1448   1.409       .  A
C1448      F1449   1.358       .  S
C1453      C1454   1.407       .  A
C1453      C1458   1.393       .  A
C1453      F1460   1.358       .  S
C1454      C1455   1.409       .  A
C1455      C1456   1.410       .  A
C1455      F1462   1.357       .  S
C1456      C1457   1.410       .  A
C1456      F1461   1.357       .  S
C1457      C1458   1.407       .  A
C1458      F1459   1.358       .  S
C1463      C1464   1.406       .  A
C1463      C1468   1.405       .  A
C1463      F1470   1.357       .  S
C1464      C1465   1.405       .  A
C1465      C1466   1.399       .  A
C1465      F1472   1.355       .  S
C1466      C1467   1.405       .  A
C1466      F1471   1.358       .  S
C1467      C1468   1.408       .  A
C1468      F1469   1.358       .  S
C1473      C1474   1.408       .  A
C1473      C1478   1.403   1_655  A
C1473      F1480   1.358       .  S
C1474      C1475   1.410       .  A
C1475      C1476   1.406       .  A
C1475      F1482   1.358       .  S
C1476      C1477   1.407   1_655  A
C1476      F1481   1.358       .  S
C1477      C1478   1.407       .  A
C1478      F1479   1.357       .  S
C1483      C1484   1.399       .  A
C1483      C1488   1.401       .  A
C1483      F1490   1.357       .  S
C1484      C1485   1.406       .  A
C1485      C1486   1.401       .  A
C1485      F1492   1.356       .  S
C1486      C1487   1.406       .  A
C1486      F1491   1.357       .  S
C1487      C1488   1.414       .  A
C1488      F1489   1.357       .  S
C1493      C1494   1.406       .  A
C1493      C1498   1.397       .  A
C1493      F1500   1.355       .  S
C1494      C1495   1.403       .  A
C1495      C1496   1.406       .  A
C1495      F1502   1.358       .  S
C1496      C1497   1.415       .  A
C1496      F1501   1.357       .  S
C1497      C1498   1.406       .  A
C1498      F1499   1.357       .  S
C1503      C1504   1.406       .  A
C1503      C1508   1.404       .  A
C1503      F1510   1.358       .  S
C1504      C1505   1.409       .  A
C1505      C1506   1.405       .  A
C1505      F1512   1.358       .  S
C1506      C1507   1.407       .  A
C1506      F1511   1.358       .  S
C1507      C1508   1.408       .  A
C1508      F1509   1.358       .  S
C1513      C1514   1.401       .  A
C1513      C1518   1.405       .  A
C1513      F1520   1.357       .  S
C1514      C1515   1.406       .  A
C1515      C1516   1.390       .  A
C1515      F1522   1.354       .  S
C1516      C1517   1.406       .  A
C1516      F1521   1.358       .  S
C1517      C1518   1.417       .  A
C1518      F1519   1.357       .  S
C1523      C1524   1.413       .  A
C1523      C1528   1.403       .  A
C1523      F1530   1.358       .  S
C1524      C1525   1.407       .  A
C1525      C1526   1.399       .  A
C1525      F1532   1.358       .  S
C1526      C1527   1.407       .  A
C1526      F1531   1.359       .  S
C1527      C1528   1.402       .  A
C1528      F1529   1.358       .  S
C1533      C1534   1.407       .  A
C1533      C1538   1.402   1_545  A
C1533      F1540   1.358       .  S
C1534      C1535   1.407       .  A
C1535      C1536   1.403   1_545  A
C1535      F1542   1.358       .  S
C1536      C1537   1.407       .  A
C1536      F1541   1.358       .  S
C1537      C1538   1.406       .  A
C1538      F1539   1.358       .  S
C1543      C1544   1.403       .  A
C1543      C1548   1.402       .  A
C1543      F1550   1.357       .  S
C1544      C1545   1.406       .  A
C1545      C1546   1.404       .  A
C1545      F1552   1.358       .  S
C1546      C1547   1.403       .  A
C1546      F1551   1.357       .  S
C1547      C1548   1.407       .  A
C1548      F1549   1.357       .  S
C1553      C1554   1.406       .  A
C1553      C1558   1.402       .  A
C1553      F1560   1.358       .  S
C1554      C1555   1.401       .  A
C1555      C1556   1.395       .  A
C1555      F1562   1.358       .  S
C1556      C1557   1.405       .  A
C1556      F1561   1.358       .  S
C1557      C1558   1.403       .  A
C1558      F1559   1.358       .  S
C1563      C1564   1.410       .  A
C1563      C1568   1.398       .  A
C1563      F1570   1.357       .  S
C1564      C1565   1.407       .  A
C1565      C1566   1.402       .  A
C1565      F1572   1.358       .  S
C1566      C1567   1.406       .  A
C1566      F1571   1.354       .  S
C1567      C1568   1.402       .  A
C1568      F1569   1.358       .  S
C1573      C1574   1.412       .  A
C1573      C1578   1.417       .  A
C1573      F1580   1.357       .  S
C1574      C1575   1.404       .  A
C1575      C1576   1.394       .  A
C1575      F1582   1.359       .  S
C1576      C1577   1.409       .  A
C1576      F1581   1.358       .  S
C1577      C1578   1.411       .  A
C1578      F1579   1.357       .  S
C1583      C1584   1.404       .  A
C1583      C1588   1.400       .  A
C1583      F1590   1.357       .  S
C1584      C1585   1.404       .  A
C1585      C1586   1.396       .  A
C1585      F1592   1.358       .  S
C1586      C1587   1.408       .  A
C1586      F1591   1.358       .  S
C1587      C1588   1.408       .  A
C1588      F1589   1.358       .  S
C1593      C1594   1.405       .  A
C1593      C1598   1.400       .  A
C1593      F1600   1.358       .  S
C1594      C1595   1.402       .  A
C1595      C1596   1.395       .  A
C1595      F1602   1.359       .  S
C1596      C1597   1.404       .  A
C1596      F1601   1.355       .  S
C1597      C1598   1.404       .  A
C1598      F1599   1.358       .  S
C1603      C1604   1.406       .  A
C1603      C1608   1.403       .  A
C1603      F1610   1.357       .  S
C1604      C1605   1.403       .  A
C1605      C1606   1.400       .  A
C1605      F1612   1.358       .  S
C1606      C1607   1.407       .  A
C1606      F1611   1.358       .  S
C1607      C1608   1.404       .  A
C1608      F1609   1.357       .  S
C1613      C1614   1.413       .  A
C1613      C1618   1.391       .  A
C1613      F1620   1.359       .  S
C1614      C1615   1.407       .  A
C1615      C1616   1.403       .  A
C1615      F1622   1.357       .  S
C1616      C1617   1.412       .  A
C1616      F1621   1.357       .  S
C1617      C1618   1.408       .  A
C1618      F1619   1.358       .  S
C1623      C1624   1.404       .  A
C1623      C1628   1.397       .  A
C1623      F1630   1.358       .  S
C1624      C1625   1.405       .  A
C1625      C1626   1.408       .  A
C1625      F1632   1.357       .  S
C1626      C1627   1.412       .  A
C1626      F1631   1.358       .  S
C1627      C1628   1.407       .  A
C1628      F1629   1.358       .  S
C1633      C1634   1.400       .  A
C1633      C1638   1.395       .  A
C1633      F1640   1.358       .  S
C1634      C1635   1.411       .  A
C1635      C1636   1.401       .  A
C1635      F1642   1.358       .  S
C1636      C1637   1.403       .  A
C1636      F1641   1.358       .  S
C1637      C1638   1.409       .  A
C1638      F1639   1.357       .  S
C1643      C1644   1.411   1_655  A
C1643      C1648   1.415       .  A
C1643      F1650   1.357   1_655  S
C1644      C1645   1.408       .  A
C1645      C1646   1.395   1_455  A
C1645      F1652   1.358       .  S
C1646      C1647   1.408       .  A
C1646      F1651   1.358       .  S
C1647      C1648   1.410       .  A
C1648      F1649   1.357       .  S
C1653      C1654   1.404       .  A
C1653      C1658   1.403       .  A
C1653      F1660   1.358       .  S
C1654      C1655   1.412       .  A
C1655      C1656   1.399       .  A
C1655      F1662   1.358       .  S
C1656      C1657   1.402       .  A
C1656      F1661   1.358       .  S
C1657      C1658   1.412       .  A
C1658      F1659   1.357       .  S
C1663      C1664   1.405       .  A
C1663      C1668   1.401       .  A
C1663      F1670   1.358       .  S
C1664      C1665   1.406       .  A
C1665      C1666   1.404       .  A
C1665      F1672   1.358       .  S
C1666      C1667   1.409       .  A
C1666      F1671   1.358       .  S
C1667      C1668   1.409       .  A
C1668      F1669   1.358       .  S
C1673      C1674   1.414       .  A
C1673      C1678   1.399       .  A
C1673      F1680   1.358       .  S
C1674      C1675   1.405       .  A
C1675      C1676   1.400       .  A
C1675      F1682   1.358       .  S
C1676      C1677   1.415       .  A
C1676      F1681   1.358       .  S
C1677      C1678   1.407       .  A
C1678      F1679   1.358       .  S
C1683      C1684   1.404       .  A
C1683      C1688   1.396       .  A
C1683      F1690   1.357       .  S
C1684      C1685   1.411       .  A
C1685      C1686   1.405       .  A
C1685      F1692   1.355       .  S
C1686      C1687   1.403       .  A
C1686      F1691   1.358       .  S
C1687      C1688   1.404       .  A
C1688      F1689   1.355       .  S
C1693      C1694   1.403       .  A
C1693      C1698   1.403       .  A
C1693      F1700   1.358       .  S
C1694      C1695   1.404       .  A
C1695      C1696   1.396       .  A
C1695      F1702   1.356       .  S
C1696      C1697   1.405       .  A
C1696      F1701   1.357       .  S
C1697      C1698   1.412       .  A
C1698      F1699   1.358       .  S
C1703      C1704   1.411       .  A
C1703      C1708   1.408       .  A
C1703      F1710   1.357       .  S
C1704      C1705   1.410       .  A
C1705      C1706   1.396       .  A
C1705      F1712   1.359       .  S
C1706      C1707   1.404       .  A
C1706      F1711   1.359       .  S
C1707      C1708   1.404       .  A
C1708      F1709   1.357       .  S
C1713      C1714   1.408       .  A
C1713      C1718   1.407       .  A
C1713      F1720   1.358       .  S
C1714      C1715   1.410       .  A
C1715      C1716   1.407       .  A
C1715      F1722   1.358       .  S
C1716      C1717   1.407       .  A
C1716      F1721   1.358       .  S
C1717      C1718   1.408       .  A
C1718      F1719   1.358       .  S
C1723      C1724   1.418       .  A
C1723      C1728   1.404       .  A
C1723      F1730   1.357       .  S
C1724      C1725   1.406       .  A
C1725      C1726   1.394       .  A
C1725      F1732   1.359       .  S
C1726      C1727   1.409       .  A
C1726      F1731   1.358       .  S
C1727      C1728   1.401       .  A
C1728      F1729   1.358       .  S
C1733      C1734   1.408       .  A
C1733      C1738   1.400       .  A
C1733      F1740   1.358       .  S
C1734      C1735   1.398       .  A
C1735      C1736   1.398       .  A
C1735      F1742   1.358       .  S
C1736      C1737   1.413       .  A
C1736      F1741   1.358       .  S
C1737      C1738   1.405       .  A
C1738      F1739   1.358       .  S
C1743      C1744   1.409       .  A
C1743      C1748   1.404       .  A
C1743      F1750   1.358       .  S
C1744      C1745   1.403       .  A
C1745      C1746   1.397       .  A
C1745      F1752   1.358       .  S
C1746      C1747   1.404       .  A
C1746      F1751   1.355       .  S
C1747      C1748   1.405       .  A
C1748      F1749   1.358       .  S
C1753      C1754   1.406       .  A
C1753      C1758   1.400       .  A
C1753      F1760   1.356       .  S
C1754      C1755   1.414       .  A
C1755      C1756   1.405       .  A
C1755      F1762   1.357       .  S
C1756      C1757   1.402       .  A
C1756      F1761   1.358       .  S
C1757      C1758   1.404       .  A
C1758      F1759   1.356       .  S
C1763      C1764   1.407       .  A
C1763      C1768   1.409       .  A
C1763      F1770   1.358       .  S
C1764      C1765   1.406       .  A
C1765      C1766   1.407       .  A
C1765      F1772   1.358       .  S
C1766      C1767   1.410       .  A
C1766      F1771   1.358       .  S
C1767      C1768   1.410       .  A
C1768      F1769   1.358       .  S
C1773      C1774   1.406       .  A
C1773      C1778   1.396       .  A
C1773      F1780   1.358       .  S
C1774      C1775   1.412       .  A
C1775      C1776   1.402       .  A
C1775      F1782   1.358       .  S
C1776      C1777   1.402       .  A
C1776      F1781   1.358       .  S
C1777      C1778   1.405       .  A
C1778      F1779   1.357       .  S
C1783      C1784   1.404       .  A
C1783      C1788   1.398       .  A
C1783      F1790   1.355       .  S
C1784      C1785   1.409       .  A
C1785      C1786   1.402       .  A
C1785      F1792   1.354       .  S
C1786      C1787   1.401       .  A
C1786      F1791   1.358       .  S
C1787      C1788   1.403       .  A
C1788      F1789   1.357       .  S
C1793      C1794   1.405       .  A
C1793      C1798   1.391       .  A
C1793      F1800   1.351       .  S
C1794      C1795   1.402       .  A
C1795      C1796   1.409       .  A
C1795      F1802   1.357       .  S
C1796      C1797   1.419       .  A
C1796      F1801   1.357       .  S
C1797      C1798   1.405       .  A
C1798      F1799   1.357       .  S
C1803      C1804   1.406       .  A
C1803      C1808   1.404       .  A
C1803      F1810   1.358       .  S
C1804      C1805   1.407       .  A
C1805      C1806   1.405       .  A
C1805      F1812   1.358       .  S
C1806      C1807   1.409       .  A
C1806      F1811   1.358       .  S
C1807      C1808   1.408       .  A
C1808      F1809   1.358       .  S
C1813      C1814   1.407       .  A
C1813      C1818   1.404       .  A
C1813      F1820   1.358       .  S
C1814      C1815   1.404       .  A
C1815      C1816   1.400       .  A
C1815      F1822   1.358       .  S
C1816      C1817   1.408       .  A
C1816      F1821   1.358       .  S
C1817      C1818   1.408       .  A
C1818      F1819   1.358       .  S
C1823      C1824   1.405       .  A
C1823      C1828   1.388       .  A
C1823      F1830   1.359       .  S
C1824      C1825   1.415       .  A
C1825      C1826   1.410       .  A
C1825      F1832   1.357       .  S
C1826      C1827   1.405       .  A
C1826      F1831   1.357       .  S
C1827      C1828   1.409       .  A
C1828      F1829   1.357       .  S
C1833      C1834   1.408       .  A
C1833      C1838   1.411       .  A
C1833      F1840   1.357       .  S
C1834      C1835   1.405       .  A
C1835      C1836   1.394       .  A
C1835      F1842   1.353       .  S
C1836      C1837   1.403       .  A
C1836      F1841   1.359       .  S
C1837      C1838   1.411       .  A
C1838      F1839   1.358       .  S
C1843      C1844   1.407       .  A
C1843      C1848   1.397       .  A
C1843      F1850   1.359       .  S
C1844      C1845   1.402       .  A
C1845      C1846   1.406       .  A
C1845      F1852   1.358       .  S
C1846      C1847   1.416       .  A
C1846      F1851   1.358       .  S
C1847      C1848   1.408       .  A
C1848      F1849   1.358       .  S
C1853      C1854   1.406       .  A
C1853      C1858   1.401       .  A
C1853      F1860   1.355       .  S
C1854      C1855   1.414       .  A
C1855      C1856   1.402       .  A
C1855      F1862   1.357       .  S
C1856      C1857   1.400       .  A
C1856      F1861   1.358       .  S
C1857      C1858   1.406       .  A
C1858      F1859   1.357       .  S
C1863      C1864   1.404       .  A
C1863      C1868   1.396   1_545  A
C1863      F1870   1.358       .  S
C1864      C1865   1.409       .  A
C1865      C1866   1.411   1_545  A
C1865      F1872   1.357       .  S
C1866      C1867   1.410       .  A
C1866      F1871   1.357       .  S
C1867      C1868   1.411       .  A
C1868      F1869   1.358       .  S
