geometry optimzed in LAMMPS
_audit_creation_date              2020-12-01 
_audit_creation_method            'lammps2cif' 
_symmetry_space_group_name_H-M    'P1' 
_symmetry_Int_Tables_number       1 
_symmetry_cell_setting            triclinic 
loop_ 
_symmetry_equiv_pos_as_xyz 
  x,y,z 
_cell_length_a                    34.3570063 
_cell_length_b                    34.321701153331624 
_cell_length_c                    56.61600227383705 
_cell_angle_alpha                 89.83573739652601 
_cell_angle_beta                  90.35266820991448 
_cell_angle_gamma                 90.51619109477892 
loop_ 
_atom_site_label 
_atom_site_type_symbol 
_atom_site_fract_x 
_atom_site_fract_y 
_atom_site_fract_z 
_atom_site_charge 
O1          O  0.48873493  0.18064615  0.82992847    -0.81200
O2          O  0.54466707  0.05328000  0.90491064    -0.65900
O3          O  0.51448834  0.13895234  0.86678707    -1.12500
C4          C  0.64734010  0.16894574  0.86361283     1.05700
O5          O  0.57992105  0.09452939  0.92659306    -0.79100
O6          O  0.57836886  0.17043790  0.91301858    -0.66700
Ni7        Ni  0.47359578  0.13262651  0.84435216     1.34900
C8          C  0.56876698  0.19752807  0.89889618     0.84400
O9          O  0.47586526  0.08175724  0.89276857    -0.79700
O10         O  0.45060444  0.08559336  0.85720709    -0.89900
C11         C  0.55812470  0.06416921  0.92495650     0.84000
O12         O  0.50823611  0.10275154  0.82620579    -0.68100
O13         O  0.64420925  0.15913161  0.88543851    -0.87400
C14         C  0.52189180  0.07003743  0.83275030     0.84800
C15         C  0.44787066  0.07556072  0.87867968     1.06400
H16         H  0.59401216  0.08914397  0.86995251     0.38200
O17         O  0.58049452  0.10982116  0.87789813    -1.10100
O18         O  0.56946140  0.19316500  0.87676880    -0.66700
Ni19       Ni  0.56741085  0.14928065  0.85606449     1.26300
O20         O  0.52751826  0.06105690  0.85499264    -0.67000
O21         O  0.62107068  0.16000898  0.84835430    -0.79200
C22         C  0.52043430  0.19899459  0.82662674     0.84200
O23         O  0.55332715  0.18701570  0.83347990    -0.66400
Ni24       Ni  0.61012442  0.12637622  0.90478191     1.27400
Ni25       Ni  0.52834118  0.09452567  0.88443750     1.26100
H26         H  0.50634511  0.15875925  0.87776037     0.38700
O27         O  0.37438973  0.00042875  0.69635242    -0.81200
O28         O  0.45145156  0.98735032  0.60171036    -0.65900
O29         O  0.37451382  0.00295902  0.64798388    -1.12500
C30         C  0.34050171  0.87301880  0.63705846     1.05700
O31         O  0.40402610  0.96117133  0.57947976    -0.79100
O32         O  0.33176227  0.95810946  0.59804861    -0.66700
Ni33       Ni  0.38046457  0.03945163  0.67229303     1.34900
C34         C  0.30765708  0.96258953  0.61468004     0.84400
O35         O  0.43022190  0.05075290  0.62552554    -0.79700
O36         O  0.38806391  0.08016904  0.64933438    -0.89900
C37         C  0.43548195  0.98115706  0.58155980     0.84000
O38         O  0.43514256  0.03595523  0.67621603    -0.68100
O39         O  0.34632202  0.88375521  0.61559976    -0.87400
C40         C  0.45774208  0.00815979  0.67153703     0.84800
C41         C  0.41440715  0.08154554  0.63352587     1.06400
H42         H  0.41981943  0.92642983  0.63177576     0.38200
O43         O  0.39844352  0.94295658  0.62717858    -1.10100
O44         O  0.31589704  0.95428698  0.63589924    -0.66700
Ni45       Ni  0.36401386  0.94853854  0.65284942     1.26300
O46         O  0.45302918  0.98688644  0.65284053    -0.67000
O47         O  0.35237072  0.89351986  0.65463772    -0.79200
C48         C  0.34789830  0.97446769  0.69798656     0.84200
O49         O  0.33408321  0.95675934  0.68017411    -0.66400
Ni50       Ni  0.37585254  0.92383674  0.59877959     1.27400
Ni51       Ni  0.41520077  0.99641529  0.62655270     1.26100
H52         H  0.35336987  0.01347518  0.63867288     0.38700
O53         O  0.17846534  0.02394222  0.83764847    -0.81200
O54         O  0.04901057  0.00110521  0.91772746    -0.65900
O55         O  0.13668206  0.01331342  0.87762307    -1.12500
C56         C  0.15332566  0.88020732  0.88666664     1.05700
O57         O  0.08577250  0.96599709  0.94223388    -0.79100
O58         O  0.16080916  0.96246253  0.92881482    -0.66700
Ni59       Ni  0.13431053  0.04814602  0.85158032     1.34900
C60         C  0.18858537  0.96570740  0.91428107     0.84400
O61         O  0.08493626  0.06295297  0.90014388    -0.79700
O62         O  0.09191082  0.07948142  0.86280373    -0.89900
C63         C  0.05820223  0.98992846  0.93850779     0.84000
O64         O  0.09850692  0.01319147  0.83725266    -0.68100
O65         O  0.14590558  0.89051885  0.90785113    -0.87400
C66         C  0.06447263  0.00677890  0.84524924     0.84800
C67         C  0.08029459  0.08699063  0.88350762     1.06400
H68         H  0.07795367  0.94056155  0.88776569     0.38200
O69         O  0.10038853  0.95388758  0.89440087    -1.10100
O70         O  0.18453907  0.95687051  0.89277203    -0.66700
Ni71       Ni  0.14045794  0.95755927  0.87186992     1.26300
O72         O  0.05674004  0.00674225  0.86775433    -0.67000
O73         O  0.14450464  0.90189251  0.86905772    -0.79200
C74         C  0.19298000  0.99005700  0.83729472     0.84200
O75         O  0.17880446  0.96159947  0.84852713    -0.66400
Ni76       Ni  0.11539845  0.93005718  0.92356210     1.27400
Ni77       Ni  0.09153971  0.00831012  0.89644770     1.26100
H78         H  0.15766352  0.02240147  0.88762717     0.38700
O79         O  0.99969125  0.18808895  0.68748369    -0.81200
O80         O  0.95608991  0.05062462  0.61575074    -0.65900
O81         O  0.97848035  0.14163914  0.65123494    -1.12500
C82         C  0.84498217  0.16219439  0.65211045     1.05700
O83         O  0.91630050  0.08555995  0.59308936    -0.79100
O84         O  0.91502288  0.16175198  0.60342304    -0.66700
Ni85       Ni  0.01916754  0.14097620  0.67415383     1.34900
C86         C  0.92243843  0.19112346  0.61625847     0.84400
O87         O  0.02153155  0.08675339  0.62711323    -0.79700
O88         O  0.04655177  0.09596812  0.66246134    -0.89900
C89         C  0.94181484  0.05895859  0.59552741     0.84000
O90         O  0.98687601  0.10840096  0.69284015    -0.68100
O91         O  0.84889827  0.15065298  0.63074444    -0.87400
C92         C  0.97584467  0.07418960  0.68694255     0.84800
C93         C  0.04970911  0.08409137  0.64136114     1.06400
H94         H  0.90294921  0.08432917  0.64935181     0.38200
O95         O  0.91496971  0.10556215  0.64070437    -1.10100
O96         O  0.92055390  0.18959182  0.63854226    -0.66700
Ni97       Ni  0.92466287  0.14792305  0.66107933     1.26300
O98         O  0.97154920  0.06351574  0.66495926    -0.67000
O99         O  0.87048214  0.15483265  0.66801369    -0.79200
C100        C  0.96633903  0.20304228  0.68992808     0.84200
O101        O  0.93498075  0.18820002  0.68246042    -0.66400
Ni102      Ni  0.88446147  0.11737393  0.61328587     1.27400
Ni103      Ni  0.96837770  0.09488100  0.63484832     1.26100
H104        H  0.98549219  0.16097177  0.63987465     0.38700
O105        O  0.35123604  0.51599755  0.82517770    -0.81200
O106        O  0.45912225  0.54881452  0.91080258    -0.65900
O107        O  0.37338543  0.51832562  0.87266815    -1.12500
C108        C  0.33405298  0.64937377  0.88097542     1.05700
O109        O  0.41689617  0.57546407  0.93582533    -0.79100
O110        O  0.33975428  0.57834237  0.92675009    -0.66700
Ni111      Ni  0.37612595  0.48184003  0.84774074     1.34900
C112        C  0.31361142  0.56286129  0.91385043     0.84400
O113        O  0.43967183  0.48121251  0.89124496    -0.79700
O114        O  0.40162129  0.44440413  0.86799060    -0.89900
C115        C  0.44819037  0.55695469  0.93176074     0.84000
O116        O  0.42471009  0.49854331  0.83573420    -0.68100
O117        O  0.35056126  0.64646239  0.90125685    -0.87400
C118        C  0.44933437  0.52498749  0.84082828     0.84800
C119        C  0.42956502  0.44826063  0.88282607     1.06400
H120        H  0.41396213  0.60090904  0.87977289     0.38200
O121        O  0.39653047  0.58394468  0.88836147    -1.10100
O122        O  0.31624587  0.56066807  0.89166564    -0.66700
Ni123      Ni  0.35469397  0.57026364  0.86819071     1.26300
O124        O  0.44935985  0.54343833  0.86075221    -0.67000
O125        O  0.33640518  0.62293230  0.86520237    -0.79200
C126        C  0.32271127  0.53893217  0.82774399     0.84200
O127        O  0.31534924  0.55458078  0.84728007    -0.66400
Ni128      Ni  0.38407190  0.60941224  0.91733868     1.27400
Ni129      Ni  0.41848277  0.53274636  0.88976337     1.26100
H130        H  0.35673566  0.50557031  0.88406641     0.38700
O131        O  0.49848633  0.41361618  0.70173575    -0.81200
O132        O  0.53874543  0.48496260  0.61020555    -0.65900
O133        O  0.50594048  0.40864239  0.65373972    -1.12500
C134        C  0.63320267  0.36473310  0.65294982     1.05700
O135        O  0.56517313  0.43678750  0.58936479    -0.79100
O136        O  0.55551386  0.36331969  0.60811038    -0.66700
Ni137      Ni  0.46524885  0.41853263  0.67468456     1.34900
C138        C  0.54610197  0.33909894  0.62419222     0.84400
O139        O  0.46817551  0.46651511  0.62741355    -0.79700
O140        O  0.43111323  0.42488143  0.64812108    -0.89900
C141        C  0.55017800  0.47079297  0.59062962     0.84000
O142        O  0.47133006  0.47363122  0.67620876    -0.68100
O143        O  0.62715038  0.37112658  0.63087907    -0.87400
C144        C  0.50378118  0.49120643  0.67633627     0.84800
C145        C  0.43525837  0.45013457  0.63169528     1.06400
H146        H  0.58927481  0.44804443  0.64373813     0.38200
O147        O  0.57189435  0.42790457  0.63795819    -1.10100
O148        O  0.55053443  0.34666311  0.64598446    -0.66700
Ni149      Ni  0.55757932  0.39452969  0.66312666     1.26300
O150        O  0.52900250  0.48434396  0.66016028    -0.67000
O151        O  0.61062790  0.37800076  0.66906169    -0.79200
C152        C  0.52234183  0.38665711  0.70661204     0.84200
O153        O  0.54027335  0.36801047  0.69058663    -0.66400
Ni154      Ni  0.59421333  0.40416803  0.61127389     1.27400
Ni155      Ni  0.52082035  0.44844392  0.63309223     1.26100
H156        H  0.49555844  0.38824516  0.64379992     0.38700
O157        O  0.99501213  0.41952156  0.80941290    -0.81200
O158        O  0.96174285  0.48607449  0.90344697    -0.65900
O159        O  0.98888432  0.41211575  0.85746213    -1.12500
C160        C  0.85941449  0.37283766  0.85920590     1.05700
O161        O  0.93320091  0.43747126  0.92309516    -0.79100
O162        O  0.93711331  0.36650968  0.90314600    -0.66700
Ni163      Ni  0.02928150  0.42243536  0.83612196     1.34900
C164        C  0.94649736  0.34332083  0.88677435     0.84400
O165        O  0.03033840  0.46728955  0.88451863    -0.79700
O166        O  0.06465552  0.42627028  0.86232578    -0.89900
C167        C  0.95248779  0.46951834  0.92285194     0.84000
O168        O  0.02456287  0.47767636  0.83599063    -0.68100
O169        O  0.86601392  0.37833619  0.88124654    -0.87400
C170        C  0.99196927  0.49438659  0.83596704     0.84800
C171        C  0.06226845  0.45032229  0.87942338     1.06400
H172        H  0.90811985  0.45352964  0.86931456     0.38200
O173        O  0.92448231  0.43245875  0.87460926    -1.10100
O174        O  0.94166309  0.35117726  0.86502621    -0.66700
Ni175      Ni  0.93620253  0.40012688  0.84860165     1.26300
O176        O  0.96815136  0.48827717  0.85303945    -0.67000
O177        O  0.88231855  0.38571055  0.84302805    -0.79200
C178        C  0.97017959  0.39300128  0.80457538     0.84200
O179        O  0.95097094  0.37466438  0.82037388    -0.66400
Ni180      Ni  0.90105136  0.40863174  0.90103440     1.27400
Ni181      Ni  0.97668253  0.45092333  0.87926726     1.26100
H182        H  0.99873895  0.39077490  0.86675326     0.38700
O183        O  0.12179344  0.51134845  0.69113528    -0.81200
O184        O  0.03207907  0.54092253  0.59967654    -0.65900
O185        O  0.11156435  0.51185043  0.64241676    -1.12500
C186        C  0.15396183  0.64217896  0.63513278     1.05700
O187        O  0.07922326  0.56547812  0.57704816    -0.79100
O188        O  0.15479488  0.56907953  0.59063275    -0.66700
Ni189      Ni  0.10400431  0.47566599  0.66709879     1.34900
C190        C  0.17941360  0.55718211  0.60572864     0.84400
O191        O  0.04792956  0.47319737  0.62072738    -0.79700
O192        O  0.08527365  0.43768859  0.64486668    -0.89900
C193        C  0.04708326  0.54681763  0.57936553     0.84000
O194        O  0.05209121  0.48899699  0.67464050    -0.68100
O195        O  0.14136696  0.63773419  0.61393620    -0.87400
C196        C  0.03150466  0.51833870  0.66951214     0.84800
C197        C  0.05904285  0.44035834  0.62891421     1.06400
H198        H  0.07315792  0.59404126  0.63190196     0.38200
O199        O  0.09180896  0.57666559  0.62487378    -1.10100
O200        O  0.17225047  0.55542421  0.62756091    -0.66700
Ni201      Ni  0.12942757  0.56397273  0.64793932     1.26300
O202        O  0.03565479  0.53754427  0.65003833    -0.67000
O203        O  0.14772207  0.61705265  0.65150921    -0.79200
C204        C  0.15081873  0.53459181  0.69094412     0.84200
O205        O  0.16380100  0.54875549  0.67195038    -0.66400
Ni206      Ni  0.10963897  0.60041959  0.59652188     1.27400
Ni207      Ni  0.06943163  0.52537297  0.62280751     1.26100
H208        H  0.13007471  0.49940726  0.63217836     0.38700
O209        O  0.43550251  0.59105762  0.43509399    -0.81200
O210        O  0.44132503  0.68796130  0.34192360    -0.65900
O211        O  0.42518541  0.60780080  0.38670319    -1.12500
C212        C  0.55726601  0.57678971  0.37812941     1.05700
O213        O  0.50127743  0.67647181  0.32871506    -0.79100
O214        O  0.48624705  0.59814277  0.33009916    -0.66700
Ni215      Ni  0.40009825  0.62154618  0.41578459     1.34900
C216        C  0.47618379  0.56527618  0.33856926     0.84400
O217        O  0.37810944  0.65900821  0.36163117    -0.79700
O218        O  0.36111461  0.65306634  0.39966746    -0.89900
C219        C  0.47014264  0.69604344  0.32898622     0.84000
O220        O  0.43087513  0.66730400  0.42287593    -0.68100
O221        O  0.55153242  0.58865672  0.35716163    -0.87400
C222        C  0.43919496  0.69476570  0.40868258     0.84800
C223        C  0.35447849  0.66507351  0.37859143     1.06400
H224        H  0.49911554  0.65859230  0.38034090     0.38200
O225        O  0.48795794  0.63858720  0.37035408    -1.10100
O226        O  0.47459531  0.55857202  0.36118862    -0.66700
Ni227      Ni  0.47868911  0.59404359  0.38940220     1.26300
O228        O  0.43686210  0.69107967  0.38651289    -0.67000
O229        O  0.53245879  0.58272578  0.39403655    -0.79200
C230        C  0.45757810  0.56204070  0.43134805     0.84200
O231        O  0.46773481  0.55239820  0.41062697    -0.66400
Ni232      Ni  0.52263447  0.63226668  0.34447361     1.27400
Ni233      Ni  0.43296408  0.64871681  0.36473311     1.26100
H234        H  0.41062332  0.58692022  0.37923498     0.38700
O235        O  0.57773739  0.43892320  0.08868337    -0.81200
O236        O  0.64072017  0.46374052  0.19112071    -0.65900
O237        O  0.58361412  0.43152050  0.13721806    -1.12500
C238        C  0.55869625  0.56799741  0.13116953     1.05700
O239        O  0.59395212  0.50532955  0.20094675    -0.79100
O240        O  0.53512949  0.53153140  0.17414745    -0.66700
Ni241      Ni  0.60851138  0.40868856  0.11108648     1.34900
C242        C  0.51910308  0.49836795  0.17502390     0.84400
O243        O  0.63207752  0.39372064  0.16938866    -0.79700
O244        O  0.64020144  0.37542728  0.13149728    -0.89900
C245        C  0.62191383  0.48303310  0.20644196     0.84000
O246        O  0.64996610  0.44682911  0.10861225    -0.68100
O247        O  0.58470048  0.57211497  0.14718812    -0.87400
C248        C  0.67209888  0.45935493  0.12508724     0.84800
C249        C  0.64590040  0.37066454  0.15376593     1.06400
H250        H  0.62170545  0.50836989  0.14363704     0.38200
O251        O  0.60116286  0.49777041  0.15332608    -1.10100
O252        O  0.52611787  0.47307664  0.15886521    -0.66700
Ni253      Ni  0.56227517  0.48233358  0.13210073     1.26300
O254        O  0.66392352  0.45419623  0.14672709    -0.67000
O255        O  0.54287845  0.53488380  0.12645597    -0.79200
C256        C  0.54470238  0.45613302  0.08896472     0.84200
O257        O  0.52753843  0.46388268  0.10831614    -0.66400
Ni258      Ni  0.59007578  0.53847029  0.17393524     1.27400
Ni259      Ni  0.61550840  0.44631890  0.16303911     1.26100
H260        H  0.56350530  0.41390829  0.14269161     0.38700
O261        O  0.57113466  0.08376858  0.42310246    -0.81200
O262        O  0.63445792  0.05593755  0.32112103    -0.65900
O263        O  0.57747376  0.09016055  0.37434251    -1.12500
C264        C  0.54341274  0.95493685  0.37892625     1.05700
O265        O  0.58518496  0.01750649  0.31000143    -0.79100
O266        O  0.52350012  0.99424165  0.33561489    -0.66700
Ni267      Ni  0.60266996  0.11289947  0.40070332     1.34900
C268        C  0.50875720  0.02776733  0.33611035     0.84400
O269        O  0.62780855  0.12625766  0.34259722    -0.79700
O270        O  0.63485952  0.14543355  0.38048446    -0.89900
C271        C  0.61557742  0.03728425  0.30523940     0.84000
O272        O  0.64305109  0.07468431  0.40383131    -0.68100
O273        O  0.56854348  0.94986400  0.36273166    -0.87400
C274        C  0.66465632  0.06086952  0.38778884     0.84800
C275        C  0.64088836  0.14993688  0.35831323     1.06400
H276        H  0.61155646  0.01160855  0.36787782     0.38200
O277        O  0.59151476  0.02337413  0.35821948    -1.10100
O278        O  0.51745862  0.05148761  0.35294629    -0.66700
Ni279      Ni  0.55365717  0.04036139  0.37952619     1.26300
O280        O  0.65663412  0.06465055  0.36595563    -0.67000
O281        O  0.53147128  0.98873042  0.38500001    -0.79200
C282        C  0.53604836  0.07084479  0.42263067     0.84200
O283        O  0.51983843  0.06033787  0.40322372    -0.66400
Ni284      Ni  0.57770566  0.98413942  0.33674737     1.27400
Ni285      Ni  0.60898757  0.07420424  0.34882695     1.26100
H286        H  0.55829540  0.10824162  0.36853464     0.38700
O287        O  0.44204923  0.92856899  0.08110051    -0.81200
O288        O  0.44805918  0.86606469  0.18449129    -0.65900
O289        O  0.42621264  0.92407291  0.12923881    -1.12500
C290        C  0.56295430  0.95105062  0.13398264     1.05700
O291        O  0.48622861  0.91316056  0.19886260    -0.79100
O292        O  0.51708412  0.97395681  0.17468456    -0.66700
Ni293      Ni  0.40743303  0.89889156  0.10165688     1.34900
C294        C  0.48535320  0.99131433  0.17093102     0.84400
O295        O  0.38264197  0.87532872  0.15862144    -0.79700
O296        O  0.37013821  0.86798537  0.11973987    -0.89900
C297        C  0.46359903  0.88399063  0.20180054     0.84000
O298        O  0.44404868  0.85674263  0.10182442    -0.68100
O299        O  0.56371662  0.92636839  0.15090260    -0.87400
C300        C  0.45303561  0.83461744  0.11901763     0.84800
C301        C  0.36193422  0.86187123  0.14152720     1.06400
H302        H  0.50119349  0.88656928  0.14180861     0.38200
O303        O  0.48879398  0.90732905  0.15033695    -1.10100
O304        O  0.46435018  0.98325055  0.15261150    -0.66700
Ni305      Ni  0.47779942  0.94539951  0.12756582     1.26300
O306        O  0.44638457  0.84405317  0.14025801    -0.67000
O307        O  0.53104442  0.96470709  0.12566094    -0.79200
C308        C  0.45823374  0.96230818  0.08230827     0.84200
O309        O  0.46423165  0.97934473  0.10206458    -0.66400
Ni310      Ni  0.52449368  0.91919733  0.17443484     1.27400
Ni311      Ni  0.43600467  0.89229695  0.15596259     1.26100
H312        H  0.40810849  0.94424518  0.13349939     0.38700
O313        O  0.06417886  0.59275499  0.07965484    -0.81200
O314        O  0.04476728  0.68187230  0.17339481    -0.65900
O315        O  0.07165331  0.60828780  0.12738674    -1.12500
C316        C  0.93344514  0.58454237  0.12617722     1.05700
O317        O  0.00140593  0.64221094  0.18977113    -0.79100
O318        O  0.97389365  0.57499833  0.17276844    -0.66700
Ni319      Ni  0.09603887  0.62648055  0.09936364     1.34900
C320        C  0.00329659  0.55325047  0.17079510     0.84400
O321        O  0.11315684  0.66124376  0.15492104    -0.79700
O322        O  0.13173295  0.66032566  0.11691722    -0.89900
C323        C  0.02254874  0.67269001  0.19024552     0.84000
O324        O  0.06156252  0.66965467  0.09273338    -0.68100
O325        O  0.93089232  0.61344835  0.14016531    -0.87400
C326        C  0.05204301  0.69583498  0.10740681     0.84800
C327        C  0.13719587  0.67026881  0.13853100     1.06400
H328        H  0.99708379  0.65102695  0.13078328     0.38200
O329        O  0.00688335  0.63229066  0.14203637    -1.10100
O330        O  0.02669061  0.55607323  0.15306856    -0.66700
Ni331      Ni  0.01948668  0.58835535  0.12416975     1.26300
O332        O  0.05497245  0.69087069  0.12944039    -0.67000
O333        O  0.96613549  0.56949708  0.12069399    -0.79200
C334        C  0.04664154  0.56003339  0.08271593     0.84200
O335        O  0.03548457  0.54848304  0.10311339    -0.66400
Ni336      Ni  0.96708007  0.62819882  0.16446155     1.27400
Ni337      Ni  0.05952463  0.64667330  0.14984081     1.26100
H338        H  0.08803649  0.58884333  0.13468008     0.38700
O339        O  0.91317612  0.42699536  0.42472205    -0.81200
O340        O  0.82207152  0.46266222  0.33241451    -0.65900
O341        O  0.89780185  0.42997573  0.37607337    -1.12500
C342        C  0.93673842  0.56087072  0.38057223     1.05700
O343        O  0.83062532  0.52723323  0.32997769    -0.79100
O344        O  0.90827888  0.50554780  0.32633872    -0.66700
Ni345      Ni  0.87997108  0.39958864  0.40228580     1.34900
C346        C  0.94035359  0.49036772  0.33283499     0.84400
O347        O  0.84673027  0.39354699  0.34557158    -0.79700
O348        O  0.84611690  0.36798810  0.38215645    -0.89900
C349        C  0.81120612  0.49619143  0.32620277     0.84000
O350        O  0.83709767  0.43263612  0.41112711    -0.68100
O351        O  0.92667361  0.56051472  0.35898432    -0.87400
C352        C  0.81053658  0.44388052  0.39705014     0.84800
C353        C  0.83669386  0.36689054  0.36021602     1.06400
H354        H  0.85180328  0.50606675  0.37779598     0.38200
O355        O  0.87125773  0.49787628  0.36664093    -1.10100
O356        O  0.94858049  0.48264043  0.35487997    -0.66700
Ni357      Ni  0.91501413  0.48088420  0.38394745     1.26300
O358        O  0.81517587  0.44439691  0.37497780    -0.67000
O359        O  0.92989812  0.53196876  0.39374473    -0.79200
C360        C  0.94496328  0.44652110  0.42311459     0.84200
O361        O  0.95567227  0.46123129  0.40346072    -0.66400
Ni362      Ni  0.87908813  0.53989179  0.34516699     1.27400
Ni363      Ni  0.85917263  0.44607930  0.35457508     1.26100
H364        H  0.91792114  0.41608928  0.36785004     0.38700
O365        O  0.05485800  0.92505916  0.44077545    -0.81200
O366        O  0.03096096  0.83476046  0.34743846    -0.65900
O367        O  0.05969823  0.90994985  0.39263989    -1.12500
C368        C  0.92148657  0.93197154  0.39405584     1.05700
O369        O  0.98670765  0.87245860  0.33037414    -0.79100
O370        O  0.96182405  0.94067609  0.34674298    -0.66700
Ni371      Ni  0.08662170  0.89320772  0.42035519     1.34900
C372        C  0.99062715  0.96363522  0.34949726     0.84400
O373        O  0.10000632  0.85689900  0.36490273    -0.79700
O374        O  0.12212434  0.86091858  0.40228558    -0.89900
C375        C  0.00837012  0.84273920  0.33048210     0.84000
O376        O  0.05459243  0.84825153  0.42772791    -0.68100
O377        O  0.91821009  0.90340752  0.37983912    -0.87400
C378        C  0.04295282  0.82237744  0.41325023     0.84800
C379        C  0.12552597  0.84951713  0.38084627     1.06400
H380        H  0.98470617  0.86568947  0.38948380     0.38200
O381        O  0.99428327  0.88469218  0.37825305    -1.10100
O382        O  0.01356061  0.96165846  0.36767931    -0.66700
Ni383      Ni  0.00751233  0.92862947  0.39640314     1.26300
O384        O  0.04273532  0.82763705  0.39120622    -0.67000
O385        O  0.95445454  0.94645400  0.40016942    -0.79200
C386        C  0.03615932  0.95694780  0.43821325     0.84200
O387        O  0.02392871  0.96842877  0.41793969    -0.66400
Ni388      Ni  0.95377567  0.88784110  0.35579025     1.27400
Ni389      Ni  0.04665884  0.87102302  0.37038419     1.26100
H390        H  0.07534683  0.92973586  0.38497661     0.38700
O391        O  0.91924143  0.09241971  0.09321992    -0.81200
O392        O  0.81584774  0.05323874  0.17974505    -0.65900
O393        O  0.89845802  0.08609678  0.14070585    -1.12500
C394        C  0.93382326  0.95401709  0.13675474     1.05700
O395        O  0.82506970  0.98926583  0.18389393    -0.79100
O396        O  0.90300901  0.00999372  0.19009438    -0.66700
Ni397      Ni  0.88488020  0.11885136  0.11451397     1.34900
C398        C  0.93594756  0.02496882  0.18486310     0.84400
O399        O  0.84431568  0.12262213  0.16909899    -0.79700
O400        O  0.84972827  0.15008240  0.13332261    -0.89900
C401        C  0.80482422  0.01973153  0.18633718     0.84000
O402        O  0.84266369  0.08708812  0.10252671    -0.68100
O403        O  0.92180600  0.95476386  0.15789746    -0.87400
C404        C  0.81432074  0.07454412  0.11467472     0.84800
C405        C  0.83757823  0.15053458  0.15465536     1.06400
H406        H  0.85054170  0.01014881  0.13646878     0.38200
O407        O  0.86909754  0.01826918  0.14837904    -1.10100
O408        O  0.94620933  0.03248367  0.16314196    -0.66700
Ni409      Ni  0.91497489  0.03483845  0.13285972     1.26300
O410        O  0.81576564  0.07254643  0.13694145    -0.67000
O411        O  0.92933034  0.98325470  0.12339188    -0.79200
C412        C  0.94954418  0.07148456  0.09530181     0.84200
O413        O  0.95784504  0.05408081  0.11466435    -0.66400
Ni414      Ni  0.87407276  0.97619810  0.17015002     1.27400
Ni415      Ni  0.85657448  0.07006187  0.16000282     1.26100
H416        H  0.91806496  0.09914727  0.15025684     0.38700
C417        C  0.99632323  0.99128044  0.32912902    -0.20200
C418        C  0.96357848  0.01055662  0.31953900     0.36000
C419        C  0.96282304  0.02236018  0.29562645    -0.26200
C420        C  0.99433943  0.01568086  0.28043861     0.02500
C421        C  0.02903652  0.00041675  0.29076255     0.27300
C422        C  0.02933099  0.98795556  0.31470532    -0.25300
N423        N  0.92980450  0.01608387  0.33381216    -0.82700
H424        H  0.93625886  0.03469917  0.28855036     0.13100
C425        C  0.98828175  0.02167893  0.25400773     0.02400
N426        N  0.06454202  0.99727473  0.27766150    -0.81200
H427        H  0.05476899  0.97318305  0.32155931     0.17900
C428        C  0.97215366  0.05666548  0.24532793    -0.26100
C429        C  0.95922815  0.06050645  0.22152502     0.35900
C430        C  0.96298594  0.02912317  0.20561709    -0.20100
C431        C  0.98129564  0.99514788  0.21388395    -0.25400
C432        C  0.99321410  0.99090540  0.23771531     0.27300
H433        H  0.96776990  0.08047813  0.25751281     0.13100
N434        N  0.93983551  0.09525286  0.21383990    -0.82600
H435        H  0.98293633  0.97011778  0.20230292     0.17900
N436        N  0.00742075  0.95399669  0.24566137    -0.81200
H437        H  0.93869652  0.11548110  0.22758481     0.33600
H438        H  0.95675104  0.10792893  0.20053700     0.38100
H439        H  0.98604007  0.93287395  0.24219082     0.33500
H440        H  0.03195936  0.94723516  0.23569318     0.30200
H441        H  0.07066888  0.96768342  0.27570748     0.33500
H442        H  0.06188223  0.00943385  0.26081866     0.30200
H443        H  0.90624404  0.00192629  0.32567612     0.38100
H444        H  0.92386567  0.04589854  0.33422578     0.33600
C445        C  0.95674775  0.59585090  0.39045496    -0.20200
C446        C  0.95016581  0.60838379  0.41392885     0.36000
C447        C  0.96556040  0.64441693  0.42150590    -0.26200
C448        C  0.98817922  0.66762617  0.40644130     0.02500
C449        C  0.99619540  0.65449202  0.38340165     0.27300
C450        C  0.98024517  0.61885295  0.37560935    -0.25300
N451        N  0.92629919  0.58560997  0.42964187    -0.82700
H452        H  0.95954358  0.65475655  0.43916674     0.13100
C453        C  0.00138274  0.70680719  0.41431367     0.02400
N454        N  0.01978510  0.67787203  0.36785392    -0.81200
H455        H  0.98563067  0.60929068  0.35770672     0.17900
C456        C  0.04119677  0.71402079  0.41796321    -0.26100
C457        C  0.05535623  0.75209857  0.42096042     0.35900
C458        C  0.02923602  0.78367468  0.42089464    -0.20100
C459        C  0.98912421  0.77603745  0.41920337    -0.25400
C460        C  0.97489994  0.73789726  0.41568452     0.27300
H461        H  0.06160395  0.69019753  0.41692731     0.13100
N462        N  0.09660819  0.75824162  0.42224892    -0.82600
H463        H  0.96916647  0.80029032  0.41830138     0.17900
N464        N  0.93399007  0.73094060  0.41195075    -0.81200
H465        H  0.10286833  0.77371770  0.43770725     0.33600
H466        H  0.10518283  0.77527116  0.40783773     0.38100
H467        H  0.91848542  0.75687915  0.41348160     0.33500
H468        H  0.93018736  0.72148725  0.39453909     0.30200
H469        H  0.02322372  0.66395663  0.35160305     0.33500
H470        H  0.00481104  0.70368143  0.36441231     0.30200
H471        H  0.94184242  0.56059478  0.43411488     0.38100
H472        H  0.92193345  0.60046939  0.44548857     0.33600
C473        C  0.95378649  0.91822096  0.12792390    -0.20200
C474        C  0.95672309  0.90933787  0.10350476     0.36000
C475        C  0.97368491  0.87389412  0.09639236    -0.26200
C476        C  0.98748572  0.84696616  0.11303974     0.02500
C477        C  0.98497532  0.85583035  0.13727605     0.27300
C478        C  0.96837965  0.89121754  0.14443972    -0.25300
N479        N  0.94173432  0.93571768  0.08598142    -0.82700
H480        H  0.97562883  0.86692181  0.07778689     0.13100
C481        C  0.00409219  0.80911069  0.10528000     0.02400
N482        N  0.99902908  0.82854359  0.15456254    -0.81200
H483        H  0.96647531  0.89749994  0.16313666     0.17900
C484        C  0.04461709  0.80458322  0.10511237    -0.26100
C485        C  0.06128927  0.76768226  0.10257336     0.35900
C486        C  0.03719914  0.73431004  0.09998360    -0.20100
C487        C  0.99675337  0.73924664  0.09825770    -0.25400
C488        C  0.97991853  0.77637012  0.10091191     0.27300
H489        H  0.06336508  0.82958762  0.10835269     0.13100
N490        N  0.10279966  0.76454719  0.10395957    -0.82600
H491        H  0.97810616  0.71370442  0.09688195     0.17900
N492        N  0.93834518  0.78064706  0.10041402    -0.81200
H493        H  0.11003380  0.74706113  0.11842159     0.33600
H494        H  0.11237634  0.75074548  0.08864686     0.38100
H495        H  0.92474331  0.75389277  0.09689699     0.33500
H496        H  0.92956019  0.78892566  0.11730473     0.30200
H497        H  0.99563717  0.83951702  0.17162878     0.33500
H498        H  0.98144785  0.80359268  0.15345405     0.30200
H499        H  0.91147799  0.93626289  0.08779284     0.38100
H500        H  0.94716863  0.92538487  0.06897251     0.33600
C501        C  0.02184259  0.69728619  0.21109734    -0.20200
C502        C  0.03033593  0.73755609  0.20955995     0.36000
C503        C  0.02857623  0.75996939  0.22995466    -0.26200
C504        C  0.01792784  0.74290221  0.25137392     0.02500
C505        C  0.00921549  0.70300439  0.25304711     0.27300
C506        C  0.01126167  0.68035544  0.23273668    -0.25300
N507        N  0.03970403  0.75564616  0.18733594    -0.82700
H508        H  0.03477936  0.79097949  0.22915950     0.13100
C509        C  0.01551005  0.76772399  0.27190254     0.02400
N510        N  0.99831415  0.68594282  0.27529984    -0.81200
H511        H  0.00480473  0.64943171  0.23383263     0.17900
C512        C  0.97877998  0.77682170  0.28061616    -0.26100
C513        C  0.97511427  0.80118925  0.30003351     0.35900
C514        C  0.00929732  0.81774490  0.31001272    -0.20100
C515        C  0.04602407  0.80854383  0.30110146    -0.25400
C516        C  0.04950651  0.78305386  0.28220753     0.27300
H517        H  0.95288123  0.76441078  0.27245124     0.13100
N518        N  0.93671342  0.80730728  0.30930629    -0.82600
H519        H  0.07198718  0.82129923  0.30895251     0.17900
N520        N  0.08715594  0.77260270  0.27337851    -0.81200
H521        H  0.92534070  0.78006480  0.31409447     0.33600
H522        H  0.93720473  0.82358427  0.32479890     0.38100
H523        H  0.10920815  0.78662644  0.28301831     0.33500
H524        H  0.09062480  0.74271637  0.27624252     0.30200
H525        H  0.99233612  0.65620801  0.27333867     0.33500
H526        H  0.02231343  0.68821664  0.28667354     0.30200
H527        H  0.01505300  0.75343989  0.17649566     0.38100
H528        H  0.04548459  0.78538372  0.18952378     0.33600
C529        C  0.00877366  0.52594411  0.19131400    -0.20200
C530        C  0.97585117  0.50562584  0.20016479     0.36000
C531        C  0.97427841  0.49419934  0.22410391    -0.26200
C532        C  0.00504997  0.50195947  0.23990342     0.02500
C533        C  0.03973447  0.51854427  0.23055535     0.27300
C534        C  0.04105023  0.53076394  0.20651061    -0.25300
N535        N  0.94286799  0.49880813  0.18497737    -0.82700
H536        H  0.94776495  0.48098276  0.23076750     0.13100
C537        C  0.99839390  0.49504708  0.26608663     0.02400
N538        N  0.07309899  0.52397945  0.24563548    -0.81200
H539        H  0.06624062  0.54675998  0.20016420     0.17900
C540        C  0.98116567  0.45978982  0.27386128    -0.26100
C541        C  0.96602602  0.45548974  0.29701061     0.35900
C542        C  0.96912457  0.48647676  0.31328054    -0.20100
C543        C  0.98894189  0.52053545  0.30611194    -0.25400
C544        C  0.00282808  0.52536130  0.28281354     0.27300
H545        H  0.97726103  0.43628701  0.26131470     0.13100
N546        N  0.94483599  0.42085406  0.30350377    -0.82600
H547        H  0.99008159  0.54528159  0.31796831     0.17900
N548        N  0.01806175  0.56253166  0.27571672    -0.81200
H549        H  0.94437464  0.40097884  0.28954153     0.33600
H550        H  0.96000295  0.40761264  0.31738575     0.38100
H551        H  0.99666744  0.58341840  0.27861043     0.33500
H552        H  0.04188731  0.56919971  0.28659771     0.30200
H553        H  0.08234411  0.49640157  0.25103419     0.33500
H554        H  0.09609663  0.53657843  0.23621958     0.30200
H555        H  0.95158980  0.47860486  0.17234621     0.38100
H556        H  0.92007623  0.48563351  0.19429514     0.33600
C557        C  0.17199591  0.69537335  0.14397568    -0.20200
C558        C  0.16998592  0.72714431  0.15983839     0.36000
C559        C  0.20172645  0.75347630  0.16177264    -0.26200
C560        C  0.23552934  0.74886235  0.14829386     0.02500
C561        C  0.23817966  0.71649921  0.13309620     0.27300
C562        C  0.20644795  0.69027509  0.13102759    -0.25300
N563        N  0.13521483  0.73358490  0.17322719    -0.82700
H564        H  0.19968739  0.77844751  0.17334953     0.13100
C565        C  0.26658930  0.77971466  0.14869471     0.02400
N566        N  0.27278305  0.71091342  0.11940354    -0.81200
H567        H  0.20828428  0.66613707  0.11880425     0.17900
C568        C  0.30210741  0.77301442  0.16037566    -0.26100
C569        C  0.33301218  0.80046128  0.15931830     0.35900
C570        C  0.32817610  0.83555830  0.14649625    -0.20100
C571        C  0.29235880  0.84243478  0.13519559    -0.25400
C572        C  0.26157986  0.81497633  0.13619362     0.27300
H573        H  0.30608496  0.74576036  0.16974937     0.13100
N574        N  0.36987759  0.79194163  0.17022363    -0.82600
H575        H  0.28880040  0.86891560  0.12497096     0.17900
N576        N  0.22551975  0.82226804  0.12402044    -0.81200
H577        H  0.36863151  0.76516823  0.17905413     0.33600
H578        H  0.39033252  0.78890690  0.15676923     0.38100
H579        H  0.22632475  0.84953848  0.11575342     0.33500
H580        H  0.22262393  0.80157321  0.11058989     0.30200
H581        H  0.27031608  0.68563539  0.10921949     0.33500
H582        H  0.27512106  0.73421968  0.10754918     0.30200
H583        H  0.11288910  0.74033510  0.16132116     0.38100
H584        H  0.13862551  0.75783753  0.18420341     0.33600
C585        C  0.77732448  0.06183986  0.10376002    -0.20200
C586        C  0.77412106  0.02522833  0.09265829     0.36000
C587        C  0.73738696  0.00659067  0.09128500    -0.26200
C588        C  0.70425426  0.02421735  0.10077804     0.02500
C589        C  0.70704521  0.06229353  0.10987745     0.27300
C590        C  0.74355050  0.08078269  0.11118461    -0.25300
N591        N  0.80858257  0.00562265  0.08501476    -0.82700
H592        H  0.73512159  0.97709808  0.08460887     0.13100
C593        C  0.66968299  0.00017213  0.10673514     0.02400
N594        N  0.67338971  0.08032641  0.11995743    -0.81200
H595        H  0.74624342  0.10859643  0.12011426     0.17900
C596        C  0.66910674  0.98286179  0.12913910    -0.26100
C597        C  0.63494899  0.96623323  0.13829065     0.35900
C598        C  0.60054613  0.96580011  0.12433869    -0.20100
C599        C  0.60176411  0.98157595  0.10133363    -0.25400
C600        C  0.63601135  0.99901973  0.09243942     0.27300
H601        H  0.69503777  0.98446927  0.14012899     0.13100
N602        N  0.63474461  0.95185456  0.16217791    -0.82600
H603        H  0.57570222  0.98106946  0.09045330     0.17900
N604        N  0.63663001  0.01577496  0.06914558    -0.81200
H605        H  0.66252008  0.95382409  0.16977082     0.33600
H606        H  0.61700912  0.97030846  0.17196928     0.38100
H607        H  0.60956823  0.01212616  0.06084460     0.33500
H608        H  0.64113831  0.04578085  0.07087372     0.30200
H609        H  0.68061136  0.10767814  0.12688045     0.33500
H610        H  0.65342422  0.08517236  0.10628962     0.30200
H611        H  0.82074033  0.02219814  0.07135899     0.38100
H612        H  0.80139288  0.97846184  0.07780863     0.33600
C613        C  0.81046538  0.33450097  0.35247601    -0.20200
C614        C  0.77538346  0.34191612  0.34008234     0.36000
C615        C  0.74726314  0.31193882  0.33758895    -0.26200
C616        C  0.75357459  0.27458949  0.34695636     0.02500
C617        C  0.78930870  0.26670413  0.35837536     0.27300
C618        C  0.81721402  0.29672328  0.36110415    -0.25300
N619        N  0.76722209  0.38043926  0.33149382    -0.82700
H620        H  0.71977762  0.31797924  0.32889511     0.13100
C621        C  0.72150363  0.24489750  0.34670620     0.02400
N622        N  0.79648139  0.22859983  0.36799269    -0.81200
H623        H  0.84384626  0.29100522  0.37081345     0.17900
C624        C  0.72653502  0.20937694  0.33488756    -0.26100
C625        C  0.69938450  0.17851756  0.33728331     0.35900
C626        C  0.66607747  0.18354384  0.35142309    -0.20100
C627        C  0.66024462  0.21974518  0.36234350    -0.25400
C628        C  0.68755765  0.25039462  0.36017778     0.27300
H629        H  0.75268239  0.20514891  0.32463865     0.13100
N630        N  0.70677697  0.14142257  0.32660198    -0.82600
H631        H  0.63497526  0.22355457  0.37343733     0.17900
N632        N  0.68174068  0.28653147  0.37240380    -0.81200
H633        H  0.73244285  0.14254673  0.31678486     0.33600
H634        H  0.71140935  0.12124310  0.34017930     0.38100
H635        H  0.65531717  0.28597665  0.38146805     0.33500
H636        H  0.70368171  0.28924009  0.38519042     0.30200
H637        H  0.82415797  0.22747128  0.37573208     0.33500
H638        H  0.77647057  0.22372176  0.38154747     0.30200
H639        H  0.78662359  0.38643810  0.31778423     0.38100
H640        H  0.73933918  0.38148426  0.32402996     0.33600
C641        C  0.88500421  0.95030447  0.40235664    -0.20200
C642        C  0.88120220  0.99128842  0.40331993     0.36000
C643        C  0.84414088  0.00762828  0.40644054    -0.26200
C644        C  0.81079423  0.98397215  0.40833183     0.02500
C645        C  0.81498388  0.94314660  0.40935836     0.27300
C646        C  0.85196040  0.92671970  0.40617948    -0.25300
N647        N  0.91439448  0.01626262  0.39950651    -0.82700
H648        H  0.84087657  0.03897340  0.40559178     0.13100
C649        C  0.77175062  0.00184127  0.40514249     0.02400
N650        N  0.78134946  0.91858586  0.41272842    -0.81200
H651        H  0.85478676  0.89530693  0.40578405     0.17900
C652        C  0.74938248  0.99051390  0.38550848    -0.26100
C653        C  0.71428342  0.00890687  0.37995440     0.35900
C654        C  0.70061236  0.03939546  0.39432428    -0.20100
C655        C  0.72234911  0.05001669  0.41449191    -0.25400
C656        C  0.75802160  0.03174362  0.41992442     0.27300
H657        H  0.75982762  0.96784143  0.37392454     0.13100
N658        N  0.69254993  0.99631682  0.35963925    -0.82600
H659        H  0.71208921  0.07335482  0.42562191     0.17900
N660        N  0.78055745  0.04368513  0.44014898    -0.81200
H661        H  0.68599246  0.96669639  0.36167666     0.33600
H662        H  0.71026024  0.99954239  0.34479360     0.38100
H663        H  0.76659708  0.06614002  0.44910871     0.33500
H664        H  0.78178855  0.02000389  0.45177751     0.30200
H665        H  0.78925869  0.88924046  0.41293575     0.33500
H666        H  0.77017783  0.92470262  0.42943760     0.30200
H667        H  0.92351727  0.01234062  0.38211401     0.38100
H668        H  0.90671241  0.04554781  0.40104661     0.33600
C669        C  0.62882450  0.03730262  0.28059951    -0.20200
C670        C  0.65059107  0.06835414  0.27102285     0.36000
C671        C  0.66750226  0.06415071  0.24881575    -0.26200
C672        C  0.66325126  0.02922679  0.23625527     0.02500
C673        C  0.63773158  0.00005802  0.24443527     0.27300
C674        C  0.62056961  0.00439731  0.26660538    -0.25300
N675        N  0.65659419  0.10363573  0.28399984    -0.82700
H676        H  0.68696303  0.08681049  0.24240482     0.13100
C677        C  0.69359966  0.01993079  0.21911697     0.02400
N678        N  0.63152224  0.96523154  0.23084438    -0.81200
H679        H  0.60269608  0.98089560  0.27354025     0.17900
C680        C  0.72088244  0.99179084  0.22585453    -0.26100
C681        C  0.75704379  0.98969087  0.21476097     0.35900
C682        C  0.76577450  0.01651136  0.19661657    -0.20100
C683        C  0.73692645  0.04223787  0.18845881    -0.25400
C684        C  0.70076306  0.04417029  0.19959099     0.27300
H685        H  0.71510777  0.97339623  0.24105424     0.13100
N686        N  0.78571104  0.96254379  0.22306848    -0.82600
H687        H  0.74309588  0.06176713  0.17384150     0.17900
N688        N  0.67202797  0.07176172  0.19199242    -0.81200
H689        H  0.77557704  0.94742220  0.23789880     0.33600
H690        H  0.78920063  0.94161432  0.20989530     0.38100
H691        H  0.68213554  0.08780483  0.17750775     0.33500
H692        H  0.64773828  0.05589971  0.18610068     0.30200
H693        H  0.61248897  0.94621969  0.23959624     0.33500
H694        H  0.61756619  0.97339859  0.21516914     0.30200
H695        H  0.64554153  0.12662477  0.27391086     0.38100
H696        H  0.68659794  0.10803985  0.28579407     0.33600
C697        C  0.48467409  0.03810672  0.31482766    -0.20200
C698        C  0.46417683  0.00819363  0.30271283     0.36000
C699        C  0.45624526  0.01155455  0.27836929    -0.26200
C700        C  0.46730782  0.04483693  0.26543313     0.02500
C701        C  0.48216073  0.07738881  0.27838250     0.27300
C702        C  0.49165679  0.07322803  0.30266416    -0.25300
N703        N  0.45356066  0.97299027  0.31484555    -0.82700
H704        H  0.44375080  0.98664142  0.26926327     0.13100
C705        C  0.46759549  0.04212146  0.23868717     0.02400
N706        N  0.48881573  0.11466856  0.26742615    -0.81200
H707        H  0.50691695  0.09676707  0.31158345     0.17900
C708        C  0.43555433  0.02565597  0.22636217    -0.26100
C709        C  0.43845319  0.01362728  0.20243486     0.35900
C710        C  0.47390745  0.01867895  0.19024952    -0.20100
C711        C  0.50427017  0.03909863  0.20180073    -0.25400
C712        C  0.50198522  0.04959624  0.22578379     0.27300
H713        H  0.40892713  0.01973905  0.23592169     0.13100
N714        N  0.40683489  0.99293884  0.19128531    -0.82600
H715        H  0.53195742  0.04279485  0.19293873     0.17900
N716        N  0.53612248  0.06446191  0.23744589    -0.81200
H717        H  0.38324972  0.99038832  0.20278419     0.33600
H718        H  0.39740104  0.00980203  0.17698514     0.38100
H719        H  0.55831947  0.04405588  0.23566666     0.33500
H720        H  0.54483623  0.08997668  0.22875465     0.30200
H721        H  0.47799300  0.11490184  0.25015578     0.33500
H722        H  0.47226262  0.13507078  0.27654576     0.30200
H723        H  0.42342264  0.96924214  0.31326552     0.38100
H724        H  0.46687136  0.94963369  0.30636196     0.33600
C725        C  0.67213144  0.33820392  0.16106234    -0.20200
C726        C  0.70936188  0.34606534  0.17079935     0.36000
C727        C  0.73641368  0.31553100  0.17359774    -0.26200
C728        C  0.72746437  0.27716895  0.16653447     0.02500
C729        C  0.68971411  0.26914015  0.15751585     0.27300
C730        C  0.66264864  0.29967659  0.15479055    -0.25300
N731        N  0.72063764  0.38552098  0.17612388    -0.82700
H732        H  0.76522267  0.32195081  0.18052252     0.13100
C733        C  0.75865659  0.24653263  0.16651758     0.02400
N734        N  0.67944859  0.23024508  0.15027943    -0.81200
H735        H  0.63439790  0.29364115  0.14694311     0.17900
C736        C  0.75262186  0.21061937  0.17808258    -0.26100
C737        C  0.77915895  0.17951484  0.17585307     0.35900
C738        C  0.81283156  0.18431369  0.16178279    -0.20100
C739        C  0.81976747  0.22092594  0.15127523    -0.25400
C740        C  0.79321341  0.25184994  0.15339743     0.27300
H741        H  0.72638100  0.20643735  0.18832947     0.13100
N742        N  0.77055818  0.14239691  0.18652407    -0.82600
H743        H  0.84540715  0.22495692  0.14045775     0.17900
N744        N  0.80046835  0.28811912  0.14135792    -0.81200
H745        H  0.74355153  0.14292714  0.19492538     0.33600
H746        H  0.79130061  0.13767184  0.19978227     0.38100
H747        H  0.82714920  0.28747589  0.13258999     0.33500
H748        H  0.77899177  0.29128091  0.12834612     0.30200
H749        H  0.65068639  0.22907683  0.14416940     0.33500
H750        H  0.69707121  0.22303552  0.13597853     0.30200
H751        H  0.70292347  0.39523503  0.18976070     0.38100
H752        H  0.74922760  0.38664471  0.18253515     0.33600
C753        C  0.70875172  0.48098097  0.11954128    -0.20200
C754        C  0.72440779  0.50830536  0.13576432     0.36000
C755        C  0.76041359  0.52612561  0.13139468    -0.26200
C756        C  0.78157238  0.51776995  0.11101787     0.02500
C757        C  0.76568427  0.49172908  0.09420337     0.27300
C758        C  0.72924826  0.47364723  0.09857245    -0.25300
N759        N  0.70376681  0.51835531  0.15677811    -0.82700
H760        H  0.77239539  0.54614562  0.14437428     0.13100
C761        C  0.82126182  0.53506206  0.10889003     0.02400
N762        N  0.78672216  0.48359207  0.07295551    -0.81200
H763        H  0.71738363  0.45305160  0.08591574     0.17900
C764        C  0.85369088  0.51070760  0.11070010    -0.26100
C765        C  0.89118210  0.52615088  0.11508890     0.35900
C766        C  0.89642205  0.56697895  0.11719268    -0.20100
C767        C  0.86423026  0.59131479  0.11355267    -0.25400
C768        C  0.82680094  0.57579280  0.10939176     0.27300
H769        H  0.84927498  0.47940620  0.11049538     0.13100
N770        N  0.92324482  0.50032447  0.11900144    -0.82600
H771        H  0.86803581  0.62260984  0.11488305     0.17900
N772        N  0.79398384  0.60112558  0.10665851    -0.81200
H773        H  0.91446784  0.47127485  0.11695100     0.33600
H774        H  0.93213733  0.50350589  0.13653462     0.38100
H775        H  0.80280004  0.63031009  0.10769902     0.33500
H776        H  0.78277606  0.59696280  0.08963163     0.30200
H777        H  0.77110700  0.46389342  0.06241059     0.33500
H778        H  0.78879156  0.50956974  0.06333200     0.30200
H779        H  0.69894454  0.54839051  0.15655761     0.38100
H780        H  0.72146547  0.51194607  0.17134489     0.33600
C781        C  0.63311436  0.48158938  0.23131048    -0.20200
C782        C  0.64979557  0.44836291  0.24159863     0.36000
C783        C  0.66750984  0.45155768  0.26377426    -0.26200
C784        C  0.66894243  0.48764004  0.27531014     0.02500
C785        C  0.64744505  0.51918629  0.26655317     0.27300
C786        C  0.62931502  0.51576001  0.24459105    -0.25300
N787        N  0.65000254  0.41196374  0.22931191    -0.82700
H788        H  0.68370510  0.42705937  0.27072416     0.13100
C789        C  0.70164621  0.49498842  0.29135133     0.02400
N790        N  0.64722175  0.55552478  0.27906131    -0.81200
H791        H  0.61503512  0.54096631  0.23704664     0.17900
C792        C  0.73116570  0.52020095  0.28330474    -0.26100
C793        C  0.76722302  0.52196229  0.29473055     0.35900
C794        C  0.77320097  0.49856499  0.31476690    -0.20100
C795        C  0.74277971  0.47525916  0.32373026    -0.25400
C796        C  0.70699359  0.47283985  0.31194727     0.27300
H797        H  0.72694794  0.53651166  0.26707669     0.13100
N798        N  0.79826658  0.54565784  0.28538089    -0.82600
H799        H  0.74740005  0.45812037  0.33959686     0.17900
N800        N  0.67676571  0.44699225  0.32011768    -0.81200
H801        H  0.78882922  0.56105123  0.27047747     0.33600
H802        H  0.82012335  0.52695120  0.27966653     0.38100
H803        H  0.68560245  0.43259265  0.33550962     0.33500
H804        H  0.65287464  0.46398942  0.32464000     0.30200
H805        H  0.63129402  0.57637660  0.26971143     0.33500
H806        H  0.63230099  0.55057478  0.29477830     0.30200
H807        H  0.67889003  0.40302200  0.22794970     0.38100
H808        H  0.63527835  0.39141971  0.23968797     0.33600
C809        C  0.54413345  0.60380177  0.11962814    -0.20200
C810        C  0.56981303  0.63494570  0.11443311     0.36000
C811        C  0.55473572  0.67216130  0.10997012    -0.26200
C812        C  0.51455888  0.67867799  0.11042213     0.02500
C813        C  0.48869828  0.64690114  0.11337064     0.27300
C814        C  0.50380138  0.60950148  0.11767475    -0.25300
N815        N  0.61115828  0.62888168  0.11466400    -0.82700
H816        H  0.57440802  0.69665833  0.10743578     0.13100
C817        C  0.50061931  0.71934623  0.11170323     0.02400
N818        N  0.44737507  0.65314720  0.11330979    -0.81200
H819        H  0.48406419  0.58553040  0.12150371     0.17900
C820        C  0.48240845  0.73686262  0.09221336    -0.26100
C821        C  0.46840026  0.77535201  0.09348935     0.35900
C822        C  0.47160109  0.79607138  0.11503861    -0.20100
C823        C  0.49093596  0.77843417  0.13424497    -0.25400
C824        C  0.50550347  0.74052056  0.13277736     0.27300
H825        H  0.47924519  0.72045824  0.07598272     0.13100
N826        N  0.45025801  0.79286344  0.07319365    -0.82600
H827        H  0.49431657  0.79410908  0.15072730     0.17900
N828        N  0.52497626  0.72316737  0.15271808    -0.81200
H829        H  0.44862921  0.77300942  0.05924368     0.33600
H830        H  0.46854247  0.81547363  0.06748840     0.38100
H831        H  0.52669805  0.74275972  0.16680277     0.33500
H832        H  0.50793666  0.69963894  0.15847023     0.30200
H833        H  0.43241028  0.62676091  0.11562217     0.33500
H834        H  0.44084231  0.67042357  0.12791608     0.30200
H835        H  0.61739862  0.60927990  0.10112756     0.38100
H836        H  0.62600777  0.65477325  0.11066762     0.33600
C837        C  0.31897735  0.68946161  0.37445633    -0.20200
C838        C  0.32010732  0.72259980  0.35955239     0.36000
C839        C  0.28829614  0.74828585  0.35857850    -0.26200
C840        C  0.25487097  0.74183919  0.37222921     0.02500
C841        C  0.25312019  0.70837255  0.38680154     0.27300
C842        C  0.28512785  0.68272558  0.38784937    -0.25300
N843        N  0.35445904  0.73169109  0.34639205    -0.82700
H844        H  0.29011642  0.77401034  0.34748302     0.13100
C845        C  0.22286939  0.77133906  0.37220671     0.02400
N846        N  0.21918244  0.70108294  0.40092744    -0.81200
H847        H  0.28396060  0.65775362  0.39957933     0.17900
C848        C  0.18617056  0.76176055  0.36269086    -0.26100
C849        C  0.15467967  0.78794915  0.36382621     0.35900
C850        C  0.15965943  0.82443412  0.37514026    -0.20100
C851        C  0.19667823  0.83424618  0.38420800    -0.25400
C852        C  0.22831355  0.80833572  0.38265464     0.27300
H853        H  0.18194710  0.73340673  0.35466161     0.13100
N854        N  0.11708695  0.77656893  0.35480783    -0.82600
H855        H  0.20067525  0.86194520  0.39307184     0.17900
N856        N  0.26574361  0.81902964  0.39223321    -0.81200
H857        H  0.11770809  0.74808305  0.34833631     0.33600
H858        H  0.11106310  0.79444737  0.34031150     0.38100
H859        H  0.26509705  0.84719665  0.39919549     0.33500
H860        H  0.27164321  0.80024497  0.40635369     0.30200
H861        H  0.22230944  0.67533228  0.41063720     0.33500
H862        H  0.21716332  0.72367573  0.41319846     0.30200
H863        H  0.36435811  0.75922960  0.35167842     0.38100
H864        H  0.34681487  0.73331814  0.32851908     0.33600
C865        C  0.59342113  0.55483247  0.38418189    -0.20200
C866        C  0.61827310  0.54005510  0.36659281     0.36000
C867        C  0.65200181  0.51976480  0.37305939    -0.26200
C868        C  0.66201243  0.51392882  0.39683993     0.02500
C869        C  0.63774406  0.52879890  0.41456059     0.27300
C870        C  0.60363894  0.54888086  0.40808614    -0.25300
N871        N  0.60975297  0.54577785  0.34207366    -0.82700
H872        H  0.67085147  0.50882010  0.35935399     0.13100
C873        C  0.69830498  0.49240599  0.40252720     0.02400
N874        N  0.64781710  0.52340577  0.43901685    -0.81200
H875        H  0.58519439  0.56023216  0.42183683     0.17900
C876        C  0.73014120  0.51215706  0.41280210    -0.26100
C877        C  0.76713295  0.49468741  0.41410507     0.35900
C878        C  0.77204177  0.45678576  0.40516081    -0.20100
C879        C  0.73944647  0.43605085  0.39667121    -0.25400
C880        C  0.70262945  0.45342747  0.39531501     0.27300
H881        H  0.72670903  0.54211427  0.41834251     0.13100
N882        N  0.80034800  0.51640779  0.42249951    -0.82600
H883        H  0.74342464  0.40720703  0.38934873     0.17900
N884        N  0.66996987  0.43239677  0.38553373    -0.81200
H885        H  0.79207696  0.54424551  0.42785786     0.33600
H886        H  0.81088726  0.50217041  0.43754929     0.38100
H887        H  0.67807311  0.40420877  0.38076940     0.33500
H888        H  0.64920301  0.42941331  0.39885305     0.30200
H889        H  0.62706660  0.53624263  0.44987935     0.33500
H890        H  0.64687196  0.49349848  0.44255145     0.30200
H891        H  0.63317220  0.56109531  0.33473269     0.38100
H892        H  0.60783157  0.51848410  0.33397900     0.33600
C893        C  0.45160611  0.73344563  0.41717997    -0.20200
C894        C  0.42544232  0.76493283  0.41589339     0.36000
C895        C  0.43977837  0.80320584  0.41518987    -0.26200
C896        C  0.47991907  0.81071222  0.41524484     0.02500
C897        C  0.50609991  0.77964493  0.41842262     0.27300
C898        C  0.49159311  0.74116629  0.41951894    -0.25300
N899        N  0.38432068  0.75864318  0.41358179    -0.82700
H900        H  0.41963855  0.82696748  0.41251669     0.13100
C901        C  0.49406852  0.84896658  0.40652463     0.02400
N902        N  0.54734749  0.78713484  0.41899280    -0.81200
H903        H  0.51171632  0.71703260  0.41998161     0.17900
C904        C  0.50403029  0.87909169  0.42224315    -0.26100
C905        C  0.51936738  0.91479530  0.41378471     0.35900
C906        C  0.52540300  0.91963907  0.38928846    -0.20100
C907        C  0.51428209  0.88979618  0.37372010    -0.25400
C908        C  0.49828612  0.85476240  0.38202345     0.27300
H909        H  0.50019464  0.87455907  0.44103280     0.13100
N910        N  0.52936054  0.94566664  0.42987941    -0.82600
H911        H  0.51795156  0.89396104  0.35486972     0.17900
N912        N  0.48600038  0.82502765  0.36565405    -0.81200
H913        H  0.52275385  0.93755036  0.44722496     0.33600
H914        H  0.55951261  0.94984902  0.42921340     0.38100
H915        H  0.49020971  0.83429727  0.34823951     0.33500
H916        H  0.50388032  0.80087325  0.36814552     0.30200
H917        H  0.56255935  0.76120402  0.42156597     0.33500
H918        H  0.55552650  0.79778513  0.40241557     0.30200
H919        H  0.37504767  0.74174738  0.42790872     0.38100
H920        H  0.37891303  0.74300069  0.39809359     0.33600
C921        C  0.45673768  0.86976971  0.22588993    -0.20200
C922        C  0.42371920  0.84675351  0.23135801     0.36000
C923        C  0.42329161  0.82578647  0.25255890    -0.26200
C924        C  0.45497293  0.82795463  0.26811063     0.02500
C925        C  0.48560151  0.85440515  0.26408132     0.27300
C926        C  0.48605502  0.87556209  0.24296123    -0.25300
N927        N  0.39176638  0.84337044  0.21495337    -0.82700
H928        H  0.39975600  0.80538837  0.25610810     0.13100
C929        C  0.46020691  0.79607757  0.28484728     0.02400
N930        N  0.51746591  0.85715070  0.28059033    -0.81200
H931        H  0.51095928  0.89401693  0.23904457     0.17900
C932        C  0.48283367  0.76469432  0.27756982    -0.26100
C933        C  0.48653740  0.73173767  0.29175320     0.35900
C934        C  0.46743576  0.73036227  0.31366813    -0.20100
C935        C  0.44536659  0.76232728  0.32113246    -0.25400
C936        C  0.44146019  0.79536039  0.30676592     0.27300
H937        H  0.49691334  0.76546490  0.26047835     0.13100
N938        N  0.50868051  0.69935949  0.28350695    -0.82600
H939        H  0.43152369  0.76163558  0.33825579     0.17900
N940        N  0.41841828  0.82784432  0.31411017    -0.81200
H941        H  0.49667154  0.69006831  0.26744693     0.33600
H942        H  0.53710872  0.70909070  0.28035087     0.38100
H943        H  0.40650764  0.82252485  0.33077529     0.33500
H944        H  0.43707959  0.85189394  0.31593854     0.30200
H945        H  0.53814710  0.87747924  0.27475717     0.33500
H946        H  0.50642348  0.86787129  0.29644049     0.30200
H947        H  0.37923727  0.87090177  0.21331829     0.38100
H948        H  0.37016559  0.82476858  0.22159936     0.33600
C949        C  0.49632331  0.49051745  0.19708453    -0.20200
C950        C  0.47251919  0.52032982  0.20620397     0.36000
C951        C  0.46499254  0.52234052  0.23069791    -0.26200
C952        C  0.48050960  0.49516803  0.24681497     0.02500
C953        C  0.50090195  0.46306217  0.23729604     0.27300
C954        C  0.50872836  0.46116013  0.21272977    -0.25300
N955        N  0.45837623  0.55026134  0.19062412    -0.82700
H956        H  0.44880345  0.54684690  0.23738584     0.13100
C957        C  0.47682630  0.50301837  0.27318043     0.02400
N958        N  0.51433490  0.43250558  0.25246029    -0.81200
H959        H  0.52741379  0.43832665  0.20625089     0.17900
C960        C  0.44114756  0.51612585  0.28242588    -0.26100
C961        C  0.43827795  0.53213383  0.30538383     0.35900
C962        C  0.47158839  0.53411760  0.32027403    -0.20100
C963        C  0.50629110  0.51789168  0.31183289    -0.25400
C964        C  0.50955498  0.50358761  0.28853631     0.27300
H965        H  0.41553931  0.51613937  0.27116236     0.13100
N966        N  0.40171881  0.54842316  0.31235578    -0.82600
H967        H  0.53252070  0.52055276  0.32246897     0.17900
N968        N  0.54725199  0.49354687  0.27996115    -0.81200
H969        H  0.38112955  0.52580719  0.31237065     0.33600
H970        H  0.40309752  0.55874051  0.32968251     0.38100
H971        H  0.56541075  0.51797144  0.28171235     0.33500
H972        H  0.55838923  0.47150101  0.29077668     0.30200
H973        H  0.50173738  0.40636915  0.24666609     0.33500
H974        H  0.54447429  0.43026075  0.25041550     0.30200
H975        H  0.43951295  0.53698194  0.17846091     0.38100
H976        H  0.44191316  0.57052415  0.19991802     0.33600
C977        C  0.03146888  0.52760472  0.55769152    -0.20200
C978        C  0.99182193  0.51827403  0.55404346     0.36000
C979        C  0.97997584  0.50146111  0.53234740    -0.26200
C980        C  0.00710415  0.49322023  0.51448065     0.02500
C981        C  0.04689405  0.50046913  0.51880583     0.27300
C982        C  0.05846738  0.51794432  0.54005555    -0.25300
N983        N  0.96375809  0.52653475  0.57201047    -0.82700
H984        H  0.94935818  0.49571208  0.52910606     0.13100
C985        C  0.99373240  0.47876774  0.49090669     0.02400
N986        N  0.07550531  0.48986614  0.50158326    -0.81200
H987        H  0.08920585  0.52360694  0.54293716     0.17900
C988        C  0.00510582  0.49902567  0.47041230    -0.26100
C989        C  0.99238471  0.48735858  0.44779501     0.35900
C990        C  0.96645993  0.45528322  0.44557541    -0.20100
C991        C  0.95643969  0.43413721  0.46612152    -0.25400
C992        C  0.96999174  0.44531410  0.48863734     0.27300
H993        H  0.02355073  0.52464707  0.47212159     0.13100
N994        N  0.00458150  0.50899688  0.42732154    -0.82600
H995        H  0.93710778  0.40913198  0.46472808     0.17900
N996        N  0.95944574  0.42303210  0.50921454    -0.81200
H997        H  0.02206850  0.53277956  0.43218042     0.33600
H998        H  0.02215397  0.49070902  0.41730696     0.38100
H999        H  0.94160397  0.39939807  0.50457077     0.33500
H1000       H  0.98497298  0.41138333  0.51635208     0.30200
H1001       H  0.10352116  0.49741338  0.50737951     0.33500
H1002       H  0.07481142  0.45951743  0.50003962     0.30200
H1003       H  0.96268594  0.55679016  0.57394190     0.38100
H1004       H  0.93596951  0.51744302  0.56663186     0.33600
C1005       C  0.03595507  0.53833925  0.06094143    -0.20200
C1006       C  0.99834096  0.52236121  0.05759062     0.36000
C1007       C  0.98602698  0.51174276  0.03474717    -0.26200
C1008       C  0.01077237  0.51592645  0.01524554     0.02500
C1009       C  0.04911826  0.52960068  0.01874911     0.27300
C1010       C  0.06121418  0.54089769  0.04150191    -0.25300
N1011       N  0.97204971  0.51888299  0.07706814    -0.82700
H1012       H  0.95667365  0.50075937  0.03201950     0.13100
C1013       C  0.99634390  0.50465018  0.99141052     0.02400
N1014       N  0.07539028  0.53243729  0.99913788    -0.81200
H1015       H  0.09018116  0.55303386  0.04396633     0.17900
C1016       C  0.99578531  0.53202521  0.97286355    -0.26100
C1017       C  0.98204200  0.52184200  0.95011018     0.35900
C1018       C  0.96750951  0.48371530  0.94611785    -0.20100
C1019       C  0.96845342  0.45660550  0.96490497    -0.25400
C1020       C  0.98304563  0.46646359  0.98724215     0.27300
H1021       H  0.00625319  0.56138925  0.97617083     0.13100
N1022       N  0.98255806  0.55012215  0.93134881    -0.82600
H1023       H  0.95853299  0.42692359  0.96212055     0.17900
N1024       N  0.98491398  0.43762356  0.00570254    -0.81200
H1025       H  0.99205687  0.57719441  0.93767525     0.33600
H1026       H  0.00344437  0.54135895  0.91916242     0.38100
H1027       H  0.97384296  0.41085815  0.99982982     0.33500
H1028       H  0.01428663  0.43324374  0.00976245     0.30200
H1029       H  0.10249420  0.54322271  0.00466894     0.33500
H1030       H  0.08003384  0.50421919  0.99290497     0.30200
H1031       H  0.98330810  0.49761966  0.08839315     0.38100
H1032       H  0.94490181  0.50848237  0.07133908     0.33600
C1033       C  0.98229999  0.51704126  0.81396603    -0.20200
C1034       C  0.94858224  0.50841164  0.80046357     0.36000
C1035       C  0.94728682  0.51812430  0.77606171    -0.26200
C1036       C  0.97968719  0.53467867  0.76431471     0.02500
C1037       C  0.01212950  0.54613353  0.77838277     0.27300
C1038       C  0.01270707  0.53771584  0.80284942    -0.25300
N1039       N  0.91735796  0.48638908  0.81093533    -0.82700
H1040       H  0.92170306  0.51027753  0.76580945     0.13100
C1041       C  0.98180782  0.53486572  0.73743059     0.02400
N1042       N  0.04573202  0.56386225  0.76763089    -0.81200
H1043       H  0.03887322  0.54415815  0.81294791     0.17900
C1044       C  0.99674399  0.56750654  0.72500307    -0.26100
C1045       C  0.00851447  0.56487890  0.70103055     0.35900
C1046       C  0.00391029  0.52938210  0.68873936    -0.20100
C1047       C  0.98393175  0.49874194  0.70014483    -0.25400
C1048       C  0.97366283  0.50062532  0.72423400     0.27300
H1049       H  0.00182015  0.59443981  0.73449296     0.13100
N1050       N  0.02849119  0.59689301  0.68989647    -0.82600
H1051       H  0.98044575  0.47128407  0.69091610     0.17900
N1052       N  0.95792745  0.46655871  0.73567933    -0.81200
H1053       H  0.03065020  0.62057673  0.70141703     0.33600
H1054       H  0.01139830  0.60595540  0.67559761     0.38100
H1055       H  0.95340649  0.44399952  0.72356706     0.33500
H1056       H  0.97880268  0.45673111  0.74774737     0.30200
H1057       H  0.06684859  0.57082181  0.78034843     0.33500
H1058       H  0.05812352  0.54319143  0.75652917     0.30200
H1059       H  0.90496885  0.50376177  0.82397140     0.38100
H1060       H  0.89547291  0.48069041  0.79847165     0.33600
C1061       C  0.54219970  0.49136721  0.56800226    -0.20200
C1062       C  0.56680230  0.48640396  0.54838129     0.36000
C1063       C  0.55464633  0.49844514  0.52582255    -0.26200
C1064       C  0.51826483  0.51584380  0.52230636     0.02500
C1065       C  0.49461383  0.52324184  0.54215702     0.27300
C1066       C  0.50683829  0.51094480  0.56479817    -0.25300
N1067       N  0.60405882  0.46852625  0.55125233    -0.82700
H1068       H  0.57324891  0.49288306  0.51084108     0.13100
C1069       C  0.50469945  0.52474242  0.49774711     0.02400
N1070       N  0.45791584  0.54246935  0.53915465    -0.81200
H1071       H  0.48779728  0.51488484  0.57975847     0.17900
C1072       C  0.46859728  0.50986956  0.48987571    -0.26100
C1073       C  0.45368751  0.51932206  0.46736201     0.35900
C1074       C  0.47557582  0.54345463  0.45223357    -0.20100
C1075       C  0.51250193  0.55668451  0.45951679    -0.25400
C1076       C  0.52725559  0.54779379  0.48215204     0.27300
H1077       H  0.45165534  0.49137079  0.50154250     0.13100
N1078       N  0.41594757  0.50547544  0.46001449    -0.82600
H1079       H  0.52882796  0.57603947  0.44803080     0.17900
N1080       N  0.56428942  0.56335994  0.48966609    -0.81200
H1081       H  0.40338234  0.48825170  0.47323875     0.33600
H1082       H  0.41992406  0.48732442  0.44544142     0.38100
H1083       H  0.57715467  0.57963208  0.47611186     0.33500
H1084       H  0.55921978  0.58267452  0.50353594     0.30200
H1085       H  0.44387176  0.54523355  0.55537480     0.33500
H1086       H  0.46370370  0.57072699  0.53310427     0.30200
H1087       H  0.60481857  0.44391773  0.54042811     0.38100
H1088       H  0.62531126  0.48818932  0.54534385     0.33600
C1089       C  0.40027634  0.46288475  0.61813967    -0.20200
C1090       C  0.36487492  0.44133684  0.61835600     0.36000
C1091       C  0.33114681  0.45774278  0.60844059    -0.26200
C1092       C  0.33195468  0.49501178  0.59828579     0.02500
C1093       C  0.36769105  0.51513281  0.59630249     0.27300
C1094       C  0.40150772  0.49883160  0.60612199    -0.25300
N1095       N  0.36283470  0.40353852  0.62932276    -0.82700
H1096       H  0.30352467  0.44249760  0.61006773     0.13100
C1097       C  0.29460436  0.51571469  0.59514326     0.02400
N1098       N  0.36890148  0.55306686  0.58549697    -0.81200
H1099       H  0.42843822  0.51542149  0.60551915     0.17900
C1100       C  0.28766955  0.54710310  0.61019087    -0.26100
C1101       C  0.25052705  0.56262462  0.61226719     0.35900
C1102       C  0.21937110  0.54690898  0.59894145    -0.20100
C1103       C  0.22667316  0.51763311  0.58232240    -0.25400
C1104       C  0.26430286  0.50163593  0.58038965     0.27300
H1105       H  0.31070703  0.55801174  0.62163014     0.13100
N1106       N  0.24404938  0.59339152  0.62882594    -0.82600
H1107       H  0.20273055  0.50562610  0.57205639     0.17900
N1108       N  0.27162177  0.47036236  0.56425728    -0.81200
H1109       H  0.26218399  0.61687925  0.62438617     0.33600
H1110       H  0.25216027  0.58353271  0.64563141     0.38100
H1111       H  0.24634582  0.46334787  0.55474710     0.33500
H1112       H  0.29195904  0.48048592  0.55196639     0.30200
H1113       H  0.39712188  0.56467402  0.58607440     0.33500
H1114       H  0.36157177  0.54962142  0.56767020     0.30200
H1115       H  0.38025779  0.38482335  0.61950323     0.38100
H1116       H  0.33451128  0.39219761  0.62845503     0.33600
C1117       C  0.46832909  0.54102044  0.95276530    -0.20200
C1118       C  0.46320453  0.50147167  0.95916073     0.36000
C1119       C  0.47434818  0.48883407  0.98189925    -0.26200
C1120       C  0.48969313  0.51507336  0.99853383     0.02500
C1121       C  0.49496552  0.55454197  0.99214447     0.27300
C1122       C  0.48404002  0.56713168  0.96937251    -0.25300
N1123       N  0.44519178  0.47463638  0.94291757    -0.82700
H1124       H  0.47059024  0.45850160  0.98681610     0.13100
C1125       C  0.50229353  0.50051811  0.02213064     0.02400
N1126       N  0.51070911  0.58177441  0.00900018    -0.81200
H1127       H  0.48644639  0.59774321  0.96480791     0.17900
C1128       C  0.54206101  0.50068935  0.02741398    -0.26100
C1129       C  0.55603854  0.48701246  0.04920587     0.35900
C1130       C  0.52965760  0.47180652  0.06613643    -0.20100
C1131       C  0.48953916  0.47259429  0.06112683    -0.25400
C1132       C  0.47557845  0.48680651  0.03920261     0.27300
H1133       H  0.56237159  0.51177017  0.01439286     0.13100
N1134       N  0.59704560  0.48936331  0.05438391    -0.82600
H1135       H  0.46919413  0.46173357  0.07417835     0.17900
N1136       N  0.43452967  0.48752120  0.03421616    -0.81200
H1137       H  0.61238334  0.50086945  0.04003424     0.33600
H1138       H  0.60082471  0.50906465  0.06828648     0.38100
H1139       H  0.41882366  0.47647056  0.04854804     0.33500
H1140       H  0.42652705  0.51668563  0.03228902     0.30200
H1141       H  0.51282065  0.60962521  0.00155972     0.33500
H1142       H  0.49097526  0.58365794  0.02292856     0.30200
H1143       H  0.41633957  0.48323279  0.94040068     0.38100
H1144       H  0.44412351  0.44657710  0.95014264     0.33600
C1145       C  0.29731679  0.54866188  0.80770120    -0.20200
C1146       C  0.30927527  0.54483079  0.78399029     0.36000
C1147       C  0.28283606  0.55369568  0.76594502    -0.26200
C1148       C  0.24504137  0.56570593  0.77124266     0.02500
C1149       C  0.23387458  0.57187920  0.79467956     0.27300
C1150       C  0.26015368  0.56330839  0.81273462    -0.25300
N1151       N  0.34774480  0.53181884  0.77823160    -0.82700
H1152       H  0.29086035  0.54883750  0.74770592     0.13100
C1153       C  0.21582428  0.56423595  0.75246620     0.02400
N1154       N  0.19535035  0.58525897  0.79994948    -0.81200
H1155       H  0.25097840  0.56694561  0.83086566     0.17900
C1156       C  0.18660085  0.53569845  0.75409161    -0.26100
C1157       C  0.16306108  0.52673063  0.73465771     0.35900
C1158       C  0.16977555  0.54649818  0.71311904    -0.20100
C1159       C  0.19703477  0.57737802  0.71227965    -0.25400
C1160       C  0.22019160  0.58643412  0.73183947     0.27300
H1161       H  0.18362164  0.51888181  0.77022916     0.13100
N1162       N  0.13402692  0.49643866  0.73651221    -0.82600
H1163       H  0.20136435  0.59369506  0.69608775     0.17900
N1164       N  0.24911563  0.61690153  0.73065242    -0.81200
H1165       H  0.13444118  0.48383142  0.75334792     0.33600
H1166       H  0.10682935  0.50953292  0.73470524     0.38100
H1167       H  0.24875496  0.63021503  0.71402238     0.33500
H1168       H  0.24142236  0.63828087  0.74284027     0.30200
H1169       H  0.19161143  0.58786023  0.81819060     0.33500
H1170       H  0.19265947  0.61325920  0.79284011     0.30200
H1171       H  0.34895039  0.50205370  0.78209458     0.38100
H1172       H  0.35261964  0.53424880  0.76006867     0.33600
C1173       C  0.09855674  0.46076670  0.89262588    -0.20200
C1174       C  0.09806512  0.47864311  0.91515890     0.36000
C1175       C  0.13311677  0.49283362  0.92514165    -0.26200
C1176       C  0.16862598  0.48867970  0.91334992     0.02500
C1177       C  0.16946642  0.46847726  0.89169586     0.27300
C1178       C  0.13458914  0.45451055  0.88170778    -0.25300
N1179       N  0.06213336  0.48261212  0.92774327    -0.82700
H1180       H  0.13269256  0.50803459  0.94188671     0.13100
C1181       C  0.20414945  0.50941422  0.92190239     0.02400
N1182       N  0.20562022  0.46375148  0.87937828    -0.81200
H1183       H  0.13550403  0.44037673  0.86464058     0.17900
C1184       C  0.23770818  0.48801389  0.92735524    -0.26100
C1185       C  0.27453655  0.50631727  0.92823137     0.35900
C1186       C  0.27754622  0.54665965  0.92393398    -0.20100
C1187       C  0.24357129  0.56861922  0.92124135    -0.25400
C1188       C  0.20680481  0.55036782  0.92003063     0.27300
H1189       H  0.23552876  0.45659182  0.92888013     0.13100
N1190       N  0.30923291  0.48370807  0.93120475    -0.82600
H1191       H  0.24610062  0.59954011  0.91752057     0.17900
N1192       N  0.17263889  0.57287475  0.91492170    -0.81200
H1193       H  0.30217362  0.45428481  0.93366542     0.33600
H1194       H  0.32294585  0.49308333  0.94674250     0.38100
H1195       H  0.17956853  0.60257668  0.91417697     0.33500
H1196       H  0.16272094  0.56510795  0.89806737     0.30200
H1197       H  0.20134318  0.44789284  0.86382257     0.33500
H1198       H  0.21547071  0.49143000  0.87429808     0.30200
H1199       H  0.05191264  0.45456933  0.93170212     0.38100
H1200       H  0.06685992  0.49656550  0.94391626     0.33600
C1201       C  0.47735280  0.53298711  0.82112493    -0.20200
C1202       C  0.49475907  0.50082988  0.80982286     0.36000
C1203       C  0.50764603  0.50369128  0.78630581    -0.26200
C1204       C  0.50378660  0.53823211  0.77314009     0.02500
C1205       C  0.48889660  0.57144324  0.78485556     0.27300
C1206       C  0.47584435  0.56846659  0.80863132    -0.25300
N1207       N  0.49667766  0.46396832  0.82172179    -0.82700
H1208       H  0.51852745  0.47775202  0.77781666     0.13100
C1209       C  0.51051469  0.53695558  0.74666211     0.02400
N1210       N  0.48557999  0.60767223  0.77226813    -0.81200
H1211       H  0.46155068  0.59303446  0.81670588     0.17900
C1212       C  0.47992839  0.54769262  0.73139937    -0.26100
C1213       C  0.48007634  0.53808531  0.70712846     0.35900
C1214       C  0.51115571  0.51646703  0.69754221    -0.20100
C1215       C  0.54349827  0.50912569  0.71214963    -0.25400
C1216       C  0.54390762  0.51959645  0.73634467     0.27300
H1217       H  0.45428618  0.56107788  0.73874569     0.13100
N1218       N  0.44720136  0.54760427  0.69243248    -0.82600
H1219       H  0.56749510  0.49244228  0.70524082     0.17900
N1220       N  0.57818377  0.51086815  0.74999150    -0.81200
H1221       H  0.42643367  0.56289097  0.70203924     0.33600
H1222       H  0.45709348  0.56645500  0.67918497     0.38100
H1223       H  0.60158455  0.52544729  0.74208124     0.33500
H1224       H  0.57639132  0.52246538  0.76696258     0.30200
H1225       H  0.47385443  0.62909906  0.78314365     0.33500
H1226       H  0.51372761  0.61696614  0.76797862     0.30200
H1227       H  0.52577484  0.45533894  0.82220342     0.38100
H1228       H  0.48103306  0.44351863  0.81171426     0.33600
C1229       C  0.81166563  0.18871761  0.65759171    -0.20200
C1230       C  0.77669056  0.18774453  0.64420585     0.36000
C1231       C  0.74913863  0.21773670  0.64671181    -0.26200
C1232       C  0.75536936  0.24886521  0.66234228     0.02500
C1233       C  0.78939498  0.24920018  0.67646987     0.27300
C1234       C  0.81700958  0.21909015  0.67406366    -0.25300
N1235       N  0.76947144  0.15657880  0.62780384    -0.82700
H1236       H  0.72289410  0.21732506  0.63599670     0.13100
C1237       C  0.72686805  0.28172461  0.66248340     0.02400
N1238       N  0.79605487  0.28035515  0.69296319    -0.81200
H1239       H  0.84377656  0.22049348  0.68426047     0.17900
C1240       C  0.69451135  0.28050793  0.67752967    -0.26100
C1241       C  0.66491480  0.30896026  0.67611994     0.35900
C1242       C  0.66716763  0.33898627  0.65894616    -0.20100
C1243       C  0.70038742  0.34063946  0.64446432    -0.25400
C1244       C  0.73022982  0.31271081  0.64618990     0.27300
H1245       H  0.69190993  0.25672748  0.69006244     0.13100
N1246       N  0.63188755  0.30645209  0.69142269    -0.82600
H1247       H  0.70258607  0.36336680  0.63120500     0.17900
N1248       N  0.76326513  0.31478251  0.63075341    -0.81200
H1249       H  0.63342928  0.28154417  0.70205262     0.33600
H1250       H  0.63415141  0.33019593  0.70284231     0.38100
H1251       H  0.76115133  0.33886215  0.61948214     0.33500
H1252       H  0.78804227  0.31943781  0.64120721     0.30200
H1253       H  0.82222754  0.27623841  0.70212296     0.33500
H1254       H  0.79933116  0.30617316  0.68332248     0.30200
H1255       H  0.76727715  0.13075635  0.63756735     0.38100
H1256       H  0.74269976  0.16023161  0.61923664     0.33600
C1257       C  0.02609767  0.97809534  0.46034358    -0.20200
C1258       C  0.98998679  0.99657645  0.46324080     0.36000
C1259       C  0.97874649  0.00958966  0.48570839    -0.26200
C1260       C  0.00308545  0.00518767  0.50560821     0.02500
C1261       C  0.03999118  0.98825390  0.50263008     0.27300
C1262       C  0.05086778  0.97454063  0.48017664    -0.25300
N1263       N  0.96375268  0.00067012  0.44370234    -0.82700
H1264       H  0.95028589  0.02249039  0.48770118     0.13100
C1265       C  0.98941143  0.01886653  0.52922608     0.02400
N1266       N  0.06624927  0.98498878  0.52239192    -0.81200
H1267       H  0.07874343  0.96043055  0.47821544     0.17900
C1268       C  0.98895794  0.99348186  0.54888944    -0.26100
C1269       C  0.97388075  0.00530787  0.57095516     0.35900
C1270       C  0.95849261  0.04309308  0.57326860    -0.20100
C1271       C  0.95996527  0.06846035  0.55367874    -0.25400
C1272       C  0.97556443  0.05707252  0.53197670     0.27300
H1273       H  0.99967293  0.96410181  0.54687997     0.13100
N1274       N  0.97375234  0.97903842  0.59075026    -0.82600
H1275       H  0.94951105  0.09800442  0.55539522     0.17900
N1276       N  0.97775815  0.08442417  0.51271837    -0.81200
H1277       H  0.98653661  0.95259549  0.58618293     0.33600
H1278       H  0.94473130  0.97285439  0.59487587     0.38100
H1279       H  0.96615313  0.11129187  0.51754172     0.33500
H1280       H  0.00720982  0.08936598  0.50912802     0.30200
H1281       H  0.09214469  0.97173203  0.51729113     0.33500
H1282       H  0.07363321  0.01322357  0.52779704     0.30200
H1283       H  0.93772990  0.98630621  0.44792223     0.38100
H1284       H  0.95777554  0.03030646  0.44164690     0.33600
C1285       C  0.93454877  0.22881585  0.60603536    -0.20200
C1286       C  0.91596751  0.26319149  0.61339494     0.36000
C1287       C  0.93514304  0.29927330  0.61079063    -0.26200
C1288       C  0.97266496  0.30137937  0.60125524     0.02500
C1289       C  0.98949079  0.26753080  0.59174090     0.27300
C1290       C  0.97009069  0.23141675  0.59410134    -0.25300
N1291       N  0.87892723  0.26079909  0.62504635    -0.82700
H1292       H  0.92224949  0.32530333  0.61804417     0.13100
C1293       C  0.99668086  0.33680701  0.60577866     0.02400
N1294       N  0.02735398  0.26974652  0.58115611    -0.81200
H1295       H  0.98436623  0.20494046  0.58860790     0.17900
C1296       C  0.02792172  0.33367295  0.62162654    -0.26100
C1297       C  0.04971087  0.36644631  0.62871315     0.35900
C1298       C  0.03960261  0.40390506  0.62003128    -0.20100
C1299       C  0.00871023  0.40668765  0.60353735    -0.25400
C1300       C  0.98723695  0.37352429  0.59632859     0.27300
H1301       H  0.03481608  0.30533652  0.62896968     0.13100
N1302       N  0.08153196  0.36154615  0.64503693    -0.82600
H1303       H  0.00070298  0.43491485  0.59651614     0.17900
N1304       N  0.95568112  0.37698857  0.57969147    -0.81200
H1305       H  0.10719753  0.36772171  0.63587454     0.33600
H1306       H  0.08352733  0.33255032  0.65060275     0.38100
H1307       H  0.95241490  0.40599996  0.57440321     0.33500
H1308       H  0.96321159  0.36137401  0.56458538     0.30200
H1309       H  0.03594824  0.24227124  0.57533243     0.33500
H1310       H  0.02504635  0.28740248  0.56614183     0.30200
H1311       H  0.85867453  0.24970872  0.61289373     0.38100
H1312       H  0.86936304  0.28854586  0.62972680     0.33600
C1313       C  0.96308051  0.24012191  0.70166691    -0.20200
C1314       C  0.94243158  0.24243135  0.72284969     0.36000
C1315       C  0.93646321  0.27887169  0.73279516    -0.26200
C1316       C  0.95038014  0.31290887  0.72171920     0.02500
C1317       C  0.96962255  0.31059144  0.69987163     0.27300
C1318       C  0.97605790  0.27384140  0.69002982    -0.25300
N1319       N  0.92819166  0.20764671  0.73425639    -0.82700
H1320       H  0.92272583  0.28049074  0.74993935     0.13100
C1321       C  0.95199306  0.34831597  0.73615659     0.02400
N1322       N  0.98310417  0.34537523  0.68818857    -0.81200
H1323       H  0.99064241  0.27142981  0.67317179     0.17900
C1324       C  0.98911833  0.36219924  0.74235647    -0.26100
C1325       C  0.99550072  0.37954085  0.76431004     0.35900
C1326       C  0.96377686  0.38344795  0.77979507    -0.20100
C1327       C  0.92582974  0.37560762  0.77190520    -0.25400
C1328       C  0.91955088  0.35852045  0.74982518     0.27300
H1329       H  0.01400259  0.35467021  0.73168590     0.13100
N1330       N  0.03438335  0.38993791  0.77166108    -0.82600
H1331       H  0.90143376  0.38059135  0.78353302     0.17900
N1332       N  0.88101116  0.34735522  0.74230958    -0.81200
H1333       H  0.05408838  0.38579549  0.75790904     0.33600
H1334       H  0.04250017  0.37083098  0.78520179     0.38100
H1335       H  0.86042533  0.35612991  0.75469077     0.33500
H1336       H  0.87496604  0.36252002  0.72669434     0.30200
H1337       H  0.99680827  0.33845751  0.67232363     0.33500
H1338       H  0.95865122  0.36184129  0.68376991     0.30200
H1339       H  0.95231598  0.19119064  0.73934461     0.38100
H1340       H  0.91331539  0.21453135  0.74972917     0.33600
C1341       C  0.17643387  0.84365292  0.88306992    -0.20200
C1342       C  0.18947084  0.82081898  0.90253773     0.36000
C1343       C  0.21658527  0.79099809  0.89896628    -0.26200
C1344       C  0.23076415  0.78232525  0.87648393     0.02500
C1345       C  0.21652556  0.80337749  0.85684663     0.27300
C1346       C  0.18942102  0.83361696  0.86031540    -0.25300
N1347       N  0.17563298  0.82801320  0.92603645    -0.82700
H1348       H  0.22681198  0.77413842  0.91394771     0.13100
C1349       C  0.26008660  0.75058632  0.87430513     0.02400
N1350       N  0.23031404  0.79461117  0.83356681    -0.81200
H1351       H  0.17925519  0.85009608  0.84520970     0.17900
C1352       C  0.25029749  0.71610422  0.86231411    -0.26100
C1353       C  0.27485524  0.68328825  0.86305167     0.35900
C1354       C  0.31006804  0.68487772  0.87626319    -0.20100
C1355       C  0.32046662  0.72014303  0.88736913    -0.25400
C1356       C  0.29610338  0.75294843  0.88637330     0.27300
H1357       H  0.22255596  0.71424367  0.85316182     0.13100
N1358       N  0.26281533  0.64773276  0.85168699    -0.82600
H1359       H  0.34744654  0.72187662  0.89733611     0.17900
N1360       N  0.30730496  0.78848190  0.89808072    -0.81200
H1361       H  0.23499865  0.65058225  0.84431830     0.33600
H1362       H  0.28158619  0.64318285  0.83752198     0.38100
H1363       H  0.33446575  0.78551229  0.90628790     0.33500
H1364       H  0.31055867  0.81000402  0.88511449     0.30200
H1365       H  0.21705342  0.81265347  0.82103173     0.33500
H1366       H  0.26008165  0.80117515  0.83319514     0.30200
H1367       H  0.14603703  0.82065596  0.92628621     0.38100
H1368       H  0.18924355  0.80976134  0.93831703     0.33600
C1369       C  0.97175102  0.06414929  0.07324685    -0.20200
C1370       C  0.97029072  0.09091517  0.05413764     0.36000
C1371       C  0.98309634  0.07983399  0.03165515    -0.26200
C1372       C  0.99756524  0.04249022  0.02771845     0.02500
C1373       C  0.00093516  0.01623341  0.04684525     0.27300
C1374       C  0.98824394  0.02739387  0.06947696    -0.25300
N1375       N  0.95540279  0.12938460  0.05741493    -0.82700
H1376       H  0.98148715  0.10044105  0.01714366     0.13100
C1377       C  0.01132504  0.03194276  0.00379098     0.02400
N1378       N  0.01657698  0.97808093  0.04305611    -0.81200
H1379       H  0.98925647  0.00654984  0.08386554     0.17900
C1380       C  0.05122902  0.03381279  0.99938696    -0.26100
C1381       C  0.06619811  0.02190787  0.97768440     0.35900
C1382       C  0.04098248  0.00784313  0.95976788    -0.20100
C1383       C  0.00067198  0.00762154  0.96366958    -0.25400
C1384       C  0.98556137  0.01931585  0.98572898     0.27300
H1385       H  0.07101777  0.04395814  0.01308046     0.13100
N1386       N  0.10738450  0.02386718  0.97389204    -0.82600
H1387       H  0.98127287  0.99673012  0.95000289     0.17900
N1388       N  0.94441827  0.01768429  0.99006451    -0.81200
H1389       H  0.11649270  0.05277031  0.97615227     0.33600
H1390       H  0.12101188  0.00691894  0.98684422     0.38100
H1391       H  0.92951657  0.00772141  0.97506617     0.33500
H1392       H  0.93960245  0.99699933  0.00334791     0.30200
H1393       H  0.01731003  0.96232228  0.05888215     0.33500
H1394       H  0.99747327  0.96315287  0.03175466     0.30200
H1395       H  0.93184144  0.13308916  0.04586812     0.38100
H1396       H  0.97713322  0.14940110  0.05268474     0.33600
C1397       C  0.03356580  0.00566132  0.82659765    -0.20200
C1398       C  0.02876317  0.97294375  0.81177771     0.36000
C1399       C  0.01123582  0.97717493  0.78913395    -0.26200
C1400       C  0.00053220  0.01403240  0.78019606     0.02500
C1401       C  0.00404533  0.04649371  0.79554323     0.27300
C1402       C  0.01961770  0.04173693  0.81855075    -0.25300
N1403       N  0.04386839  0.93598396  0.81924669    -0.82700
H1404       H  0.00739622  0.95175793  0.77808205     0.13100
C1405       C  0.98848335  0.01949364  0.75452890     0.02400
N1406       N  0.99404601  0.08478247  0.78724310    -0.81200
H1407       H  0.02448907  0.06726266  0.82945099     0.17900
C1408       C  0.95400871  0.03963303  0.74901579    -0.26100
C1409       C  0.94596069  0.05342835  0.72594895     0.35900
C1410       C  0.97256172  0.04644484  0.70733968    -0.20100
C1411       C  0.00500198  0.02307085  0.71235924    -0.25400
C1412       C  0.01342092  0.00995853  0.73547668     0.27300
H1413       H  0.93415405  0.04686239  0.76310851     0.13100
N1414       N  0.91171237  0.07655356  0.72239852    -0.82600
H1415       H  0.02631390  0.01830142  0.69864760     0.17900
N1416       N  0.04936825  0.98998792  0.73922698    -0.81200
H1417       H  0.88762767  0.05903692  0.72652281     0.33600
H1418       H  0.90837508  0.08425675  0.70464531     0.38100
H1419       H  0.04336039  0.96185437  0.74530404     0.33500
H1420       H  0.06573801  0.00496900  0.75196602     0.30200
H1421       H  0.99824492  0.10546336  0.80056442     0.33500
H1422       H  0.01331447  0.09216137  0.77368733     0.30200
H1423       H  0.02838710  0.92726304  0.83422700     0.38100
H1424       H  0.03870517  0.91483775  0.80631909     0.33600
C1425       C  0.06020235  0.12448264  0.88781485    -0.20200
C1426       C  0.03774076  0.13144439  0.90831925     0.36000
C1427       C  0.01926728  0.16760939  0.91098304    -0.26200
C1428       C  0.02242363  0.19648698  0.89357514     0.02500
C1429       C  0.04449874  0.18967836  0.87319954     0.27300
C1430       C  0.06336579  0.15396785  0.87061046    -0.25300
N1431       N  0.03308107  0.10181369  0.92611866    -0.82700
H1432       H  0.00176171  0.17311945  0.92645611     0.13100
C1433       C  0.00089884  0.23325222  0.89592112     0.02400
N1434       N  0.04730059  0.21905056  0.85509819    -0.81200
H1435       H  0.08046023  0.14913723  0.85489191     0.17900
C1436       C  0.02133518  0.26744928  0.90181453    -0.26100
C1437       C  0.00320091  0.30391959  0.90037325     0.35900
C1438       C  0.96416879  0.30582809  0.89274350    -0.20100
C1439       C  0.94334063  0.27153375  0.88771202    -0.25400
C1440       C  0.96135905  0.23507771  0.88931784     0.27300
H1441       H  0.05186187  0.26572476  0.90660189     0.13100
N1442       N  0.02482790  0.33911753  0.90512965    -0.82600
H1443       H  0.91340912  0.27340156  0.88166741     0.17900
N1444       N  0.94019625  0.20004966  0.88345408    -0.81200
H1445       H  0.05353514  0.33268861  0.90985318     0.33600
H1446       H  0.01230927  0.35237024  0.91981023     0.38100
H1447       H  0.91132221  0.20645711  0.87911652     0.33500
H1448       H  0.95266103  0.18835218  0.86827026     0.30200
H1449       H  0.06498147  0.20964582  0.84131246     0.33500
H1450       H  0.01948303  0.22278057  0.84789145     0.30200
H1451       H  0.01680048  0.07907179  0.91862627     0.38100
H1452       H  0.01675557  0.11218560  0.94026542     0.33600
C1453       C  0.17873021  0.67746676  0.64010142    -0.20200
C1454       C  0.17354888  0.71244636  0.62717856     0.36000
C1455       C  0.20108814  0.74294162  0.62922869    -0.26200
C1456       C  0.23399165  0.73965952  0.64387052     0.02500
C1457       C  0.23867068  0.70544034  0.65747514     0.27300
C1458       C  0.21077549  0.67491496  0.65569357    -0.25300
N1459       N  0.14051131  0.71674346  0.61171035    -0.82700
H1460       H  0.19733448  0.76930254  0.61891276     0.13100
C1461       C  0.26426532  0.77139169  0.64328741     0.02400
N1462       N  0.27243396  0.70124774  0.67234381    -0.81200
H1463       H  0.21527365  0.64820534  0.66553072     0.17900
C1464       C  0.27086185  0.79531728  0.66304075    -0.26100
C1465       C  0.29682757  0.82763872  0.66207113     0.35900
C1466       C  0.31696330  0.83620548  0.64080325    -0.20100
C1467       C  0.31105806  0.81106335  0.62140487    -0.25400
C1468       C  0.28508940  0.77911463  0.62240055     0.27300
H1469       H  0.25477414  0.78941541  0.67907534     0.13100
N1470       N  0.30125116  0.85258569  0.68226971    -0.82600
H1471       H  0.32617932  0.81680557  0.60501372     0.17900
N1472       N  0.27916652  0.75475811  0.60204094    -0.81200
H1473       H  0.28271243  0.84362963  0.69586010     0.33600
H1474       H  0.32960238  0.84918213  0.68870301     0.38100
H1475       H  0.29621306  0.76446835  0.58792971     0.33500
H1476       H  0.28887151  0.72684249  0.60639284     0.30200
H1477       H  0.27183123  0.67429617  0.68098154     0.33500
H1478       H  0.29686475  0.70112776  0.66141980     0.30200
H1479       H  0.11554155  0.71610792  0.62217300     0.38100
H1480       H  0.14112486  0.74391839  0.60332214     0.33600
C1481       C  0.51634386  0.06424489  0.44584731    -0.20200
C1482       C  0.53018987  0.08268012  0.46674847     0.36000
C1483       C  0.51627629  0.07046055  0.48891486    -0.26200
C1484       C  0.48819201  0.04084515  0.49091212     0.02500
C1485       C  0.47224793  0.02431774  0.47008557     0.27300
C1486       C  0.48647376  0.03615996  0.44780934    -0.25300
N1487       N  0.55867115  0.11357817  0.46548968    -0.82700
H1488       H  0.52755111  0.08404065  0.50483466     0.13100
C1489       C  0.47587194  0.02755258  0.51494255     0.02400
N1490       N  0.44247104  0.99475229  0.47165522    -0.81200
H1491       H  0.47541436  0.02204870  0.43201485     0.17900
C1492       C  0.43667456  0.03025134  0.52129492    -0.26100
C1493       C  0.42356403  0.01684742  0.54337083     0.35900
C1494       C  0.45022831  0.00013711  0.55964217    -0.20100
C1495       C  0.48980334  0.99911473  0.55380614    -0.25400
C1496       C  0.50285297  0.01229872  0.53150205     0.27300
H1497       H  0.41614559  0.04279350  0.50888040     0.13100
N1498       N  0.38306437  0.02005943  0.54934483    -0.82600
H1499       H  0.51024280  0.98641541  0.56620493     0.17900
N1500       N  0.54321081  0.00921356  0.52532242    -0.81200
H1501       H  0.36731234  0.03263166  0.53546641     0.33600
H1502       H  0.38111544  0.03911192  0.56366051     0.38100
H1503       H  0.55920035  0.99738102  0.53933716     0.33500
H1504       H  0.54507952  0.98950851  0.51133197     0.30200
H1505       H  0.43368786  0.98573985  0.45480456     0.33500
H1506       H  0.45467348  0.97047978  0.47996783     0.30200
H1507       H  0.54576399  0.13697343  0.45664994     0.38100
H1508       H  0.56610400  0.12355332  0.48237347     0.33600
C1509       C  0.08703001  0.06665548  0.63335858    -0.20200
C1510       C  0.09002117  0.04550382  0.61191415     0.36000
C1511       C  0.12609584  0.02988769  0.60532400    -0.26200
C1512       C  0.15916867  0.03497968  0.61953707     0.02500
C1513       C  0.15670781  0.05673898  0.64050784     0.27300
C1514       C  0.12075513  0.07232869  0.64720230    -0.25300
N1515       N  0.05646269  0.03916379  0.59710187    -0.82700
H1516       H  0.12827585  0.01276689  0.58933865     0.13100
C1517       C  0.19527465  0.01388114  0.61386922     0.02400
N1518       N  0.19076364  0.06260077  0.65501378    -0.81200
H1519       H  0.11914304  0.08895456  0.66339500     0.17900
C1520       C  0.22640252  0.03350034  0.60295723    -0.26100
C1521       C  0.26302271  0.01576524  0.60107740     0.35900
C1522       C  0.26842230  0.97805593  0.61024913    -0.20100
C1523       C  0.23660265  0.95770626  0.61985994    -0.25400
C1524       C  0.20002644  0.97524269  0.62175207     0.27300
H1525       H  0.22276216  0.06325457  0.59694557     0.13100
N1526       N  0.29526164  0.03702154  0.59139419    -0.82600
H1527       H  0.24092192  0.92876374  0.62708533     0.17900
N1528       N  0.16808312  0.95462132  0.63252823    -0.81200
H1529       H  0.28800631  0.04504088  0.57410363     0.33600
H1530       H  0.29916983  0.06248372  0.60125630     0.38100
H1531       H  0.17631037  0.92635326  0.63718370     0.33500
H1532       H  0.16138472  0.96884110  0.64827643     0.30200
H1533       H  0.18424661  0.07977721  0.66966416     0.33500
H1534       H  0.19917058  0.03544247  0.66160386     0.30200
H1535       H  0.03750119  0.02082194  0.60638089     0.38100
H1536       H  0.06397742  0.02428459  0.58171731     0.33600
C1537       C  0.22779405  0.98336384  0.82286308    -0.20200
C1538       C  0.24184332  0.94537526  0.81853267     0.36000
C1539       C  0.27150273  0.94017672  0.80222310    -0.26200
C1540       C  0.28679012  0.97198087  0.78997576     0.02500
C1541       C  0.27541334  0.01011534  0.79547735     0.27300
C1542       C  0.24627845  0.01551192  0.81219619    -0.25300
N1543       N  0.22465068  0.91170011  0.82938848    -0.82700
H1544       H  0.28009474  0.91089054  0.79752105     0.13100
C1545       C  0.30445886  0.96466893  0.76720160     0.02400
N1546       N  0.29082674  0.04273198  0.78241172    -0.81200
H1547       H  0.23653357  0.04480956  0.81582102     0.05100
C1548       C  0.27900562  0.95946703  0.74807290    -0.26100
C1549       C  0.29291267  0.95953896  0.72503306     0.35900
C1550       C  0.33307804  0.96531336  0.72141672    -0.20100
C1551       C  0.35890270  0.96730658  0.74076211    -0.25400
C1552       C  0.34478270  0.96689669  0.76387067     0.27300
H1553       H  0.24793078  0.95737642  0.75116492     0.13100
N1554       N  0.26616881  0.95696443  0.70542816    -0.82600
H1555       H  0.38988900  0.97078976  0.73778278     0.17900
N1556       N  0.37085138  0.96909347  0.78379695    -0.81200
H1557       H  0.23740781  0.95601449  0.71135556     0.33600
H1558       H  0.27090110  0.93032953  0.69706342     0.38100
H1559       H  0.39973913  0.96957757  0.77813722     0.33500
H1560       H  0.36620551  0.99548048  0.79243092     0.30200
H1561       H  0.27791203  0.06866259  0.78782595     0.33500
H1562       H  0.32039653  0.04532967  0.78655822     0.30200
H1563       H  0.21392103  0.89350514  0.81601992     0.38100
H1564       H  0.24647685  0.89675292  0.83851611     0.33600
C1565       C  0.42936371  0.12016599  0.62508061    -0.20200
C1566       C  0.41372785  0.15583179  0.63296439     0.36000
C1567       C  0.43255233  0.19115025  0.62741757    -0.26200
C1568       C  0.46679584  0.19184528  0.61413032     0.02500
C1569       C  0.48118478  0.15685300  0.60485663     0.27300
C1570       C  0.46230856  0.12141481  0.61031695    -0.25300
N1571       N  0.37938261  0.15651375  0.64715592    -0.82700
H1572       H  0.42139046  0.21809513  0.63453504     0.13100
C1573       C  0.49000257  0.22844818  0.61314362     0.02400
N1574       N  0.51562270  0.15742898  0.59056806    -0.81200
H1575       H  0.47445900  0.09456627  0.60373094     0.17900
C1576       C  0.52323482  0.23132064  0.62748924    -0.26100
C1577       C  0.54309085  0.26691896  0.63025191     0.35900
C1578       C  0.52967874  0.30034835  0.61817646    -0.20100
C1579       C  0.49778700  0.29699307  0.60264555    -0.25400
C1580       C  0.47752633  0.26124297  0.60018474     0.27300
H1581       H  0.53268383  0.20599518  0.63738897     0.13100
N1582       N  0.57624863  0.26960606  0.64582974    -0.82600
H1583       H  0.48745489  0.32267031  0.59345789     0.17900
N1584       N  0.44371590  0.25829580  0.58521898    -0.81200
H1585       H  0.58207100  0.24260017  0.65361365     0.33600
H1586       H  0.60047673  0.27687867  0.63558181     0.38100
H1587       H  0.43816212  0.28504766  0.57704701     0.33500
H1588       H  0.45005230  0.23860434  0.57174954     0.30200
H1589       H  0.52264416  0.12923403  0.58521175     0.33500
H1590       H  0.50920519  0.17315631  0.57520742     0.30200
H1591       H  0.38636089  0.17005511  0.66317212     0.38100
H1592       H  0.35864644  0.17353303  0.63845169     0.33600
C1593       C  0.82508017  0.34743676  0.85323761    -0.20200
C1594       C  0.79177252  0.34695103  0.86789837     0.36000
C1595       C  0.76413295  0.31656184  0.86584509    -0.26200
C1596       C  0.76873574  0.28624740  0.84957533     0.02500
C1597       C  0.80084562  0.28753816  0.83410550     0.27300
C1598       C  0.82840253  0.31840695  0.83586073    -0.25300
N1599       N  0.78679123  0.37668570  0.88544530    -0.82700
H1600       H  0.73939759  0.31570526  0.87763147     0.13100
C1601       C  0.74130007  0.25207427  0.85075690     0.02400
N1602       N  0.80632921  0.25660356  0.81745161    -0.81200
H1603       H  0.85401022  0.31817683  0.82478807     0.17900
C1604       C  0.71218513  0.24663198  0.83352104    -0.26100
C1605       C  0.68260136  0.21787139  0.83623319     0.35900
C1606       C  0.68182160  0.19418017  0.85687855    -0.20100
C1607       C  0.71268906  0.19838332  0.87325611    -0.25400
C1608       C  0.74219406  0.22677781  0.87039432     0.27300
H1609       H  0.71173451  0.26585090  0.81831005     0.13100
N1610       N  0.65257234  0.21406229  0.81859140    -0.82600
H1611       H  0.71321837  0.18022981  0.88893134     0.17900
N1612       N  0.77259853  0.23089919  0.88780218    -0.81200
H1613       H  0.65641093  0.23474638  0.80519069     0.33600
H1614       H  0.65579881  0.18681215  0.81066879     0.38100
H1615       H  0.76907518  0.21041828  0.90134310     0.33500
H1616       H  0.79895536  0.22456143  0.87957625     0.30200
H1617       H  0.83134223  0.26173388  0.80744137     0.33500
H1618       H  0.81126287  0.23104838  0.82707119     0.30200
H1619       H  0.78337040  0.40319564  0.87656935     0.38100
H1620       H  0.76126161  0.37184056  0.89502058     0.33600
C1621       C  0.54557086  0.04508374  0.94774981    -0.20200
C1622       C  0.51552743  0.01652920  0.94921013     0.36000
C1623       C  0.50121642  0.00503943  0.97159042    -0.26200
C1624       C  0.51651602  0.02071208  0.99261282     0.02500
C1625       C  0.54830714  0.04677543  0.99135916     0.27300
C1626       C  0.56210776  0.05891356  0.96911585    -0.25300
N1627       N  0.49990647  0.99873670  0.92821588    -0.82700
H1628       H  0.47786183  0.98369319  0.97268495     0.13100
C1629       C  0.50125254  0.00701284  0.01586462     0.02400
N1630       N  0.56741187  0.05977995  0.01265453    -0.81200
H1631       H  0.58589129  0.07981119  0.96858898     0.17900
C1632       C  0.51299163  0.97059886  0.02438555    -0.26100
C1633       C  0.49955080  0.95607318  0.04614959     0.35900
C1634       C  0.47436089  0.97877692  0.06007120    -0.20100
C1635       C  0.46259540  0.01534917  0.05164217    -0.25400
C1636       C  0.47513135  0.02937250  0.02939082     0.27300
H1637       H  0.53262678  0.95331973  0.01388259     0.13100
N1638       N  0.51126080  0.91811709  0.05417895    -0.82600
H1639       H  0.44241499  0.03223226  0.06198828     0.17900
N1640       N  0.45977189  0.06504926  0.01995538    -0.81200
H1641       H  0.52929965  0.90491260  0.04179395     0.33600
H1642       H  0.52791630  0.92188426  0.06953504     0.38100
H1643       H  0.43981683  0.07710599  0.03166941     0.33500
H1644       H  0.48256382  0.08517939  0.01844978     0.30200
H1645       H  0.59125728  0.07771072  0.00867590     0.33500
H1646       H  0.54802935  0.07694822  0.02208371     0.30200
H1647       H  0.48432936  0.01986539  0.91901283     0.38100
H1648       H  0.47973390  0.97691031  0.93254414     0.33600
C1649       C  0.22730956  0.98043883  0.92122644    -0.20200
C1650       C  0.25939994  0.95520103  0.92006146     0.36000
C1651       C  0.29703961  0.97081730  0.91700953    -0.26200
C1652       C  0.30288569  0.01110167  0.91472731     0.02500
C1653       C  0.27121947  0.03649308  0.91754868     0.27300
C1654       C  0.23363265  0.02086463  0.92097154    -0.25300
N1655       N  0.25306588  0.91373762  0.92005673    -0.82700
H1656       H  0.32149244  0.95147994  0.91476276     0.13100
C1657       C  0.34081396  0.02590844  0.90596821     0.02400
N1658       N  0.27703344  0.07784805  0.91522170    -0.81200
H1659       H  0.20882162  0.04013795  0.92121450     0.17900
C1660       C  0.34555827  0.03087213  0.88159685    -0.26100
C1661       C  0.38046291  0.04561177  0.87224473     0.35900
C1662       C  0.41142710  0.05646070  0.88756272    -0.20100
C1663       C  0.40657811  0.05071923  0.91208113    -0.25400
C1664       C  0.37179465  0.03509443  0.92137073     0.27300
H1665       H  0.32185753  0.02325229  0.86969412     0.13100
N1666       N  0.38402532  0.04945748  0.84715918    -0.82600
H1667       H  0.42961473  0.05920152  0.92418944     0.17900
N1668       N  0.36782010  0.02843575  0.94631813    -0.81200
H1669       H  0.36195506  0.06779306  0.84109463     0.33600
H1670       H  0.37946676  0.02198297  0.83963835     0.38100
H1671       H  0.39353891  0.03602261  0.95521658     0.33500
H1672       H  0.34623425  0.04701725  0.95250530     0.30200
H1673       H  0.25068077  0.09245719  0.91719193     0.33500
H1674       H  0.29504208  0.08688108  0.92914824     0.30200
H1675       H  0.24145554  0.90607170  0.93646933     0.38100
H1676       H  0.27949437  0.89910086  0.91857544     0.33600
C1677       C  0.51933900  0.23719791  0.81525385    -0.20200
C1678       C  0.49319838  0.24551866  0.79669379     0.36000
C1679       C  0.49601154  0.28161944  0.78543567    -0.26200
C1680       C  0.52444412  0.30892612  0.79227732     0.02500
C1681       C  0.54902216  0.30168858  0.81161169     0.27300
C1682       C  0.54593418  0.26580572  0.82315362    -0.25300
N1683       N  0.46601708  0.21656348  0.78823314    -0.82700
H1684       H  0.47774245  0.28756126  0.77017785     0.13100
C1685       C  0.53303916  0.33978020  0.77537808     0.02400
N1686       N  0.57731671  0.33032878  0.81906111    -0.81200
H1687       H  0.56512050  0.25968666  0.83795762     0.17900
C1688       C  0.50531649  0.36868052  0.77155437    -0.26100
C1689       C  0.50313421  0.38773043  0.74969278     0.35900
C1690       C  0.52906879  0.37659472  0.73154722    -0.20100
C1691       C  0.55998022  0.35176172  0.73688063    -0.25400
C1692       C  0.56189559  0.33282514  0.75852849     0.27300
H1693       H  0.48325367  0.37365495  0.78478759     0.13100
N1694       N  0.47301866  0.41579277  0.74545190    -0.82600
H1695       H  0.58080600  0.34424065  0.72351739     0.17900
N1696       N  0.59048123  0.30324678  0.76234026    -0.81200
H1697       H  0.45558434  0.41893128  0.76039130     0.33600
H1698       H  0.48660134  0.44281584  0.74277389     0.38100
H1699       H  0.58716350  0.28222075  0.74913008     0.33500
H1700       H  0.61802005  0.31606583  0.76050304     0.30200
H1701       H  0.59314347  0.32003542  0.83357574     0.33500
H1702       H  0.59746586  0.33417900  0.80550213     0.30200
H1703       H  0.44434764  0.21334103  0.80097962     0.38100
H1704       H  0.45187460  0.22631313  0.77294139     0.33600
C1705       C  0.45175170  0.41287893  0.89035855    -0.20200
C1706       C  0.48896855  0.41548998  0.90137974     0.36000
C1707       C  0.50877141  0.38121539  0.90773800    -0.26200
C1708       C  0.49348844  0.34422640  0.90237195     0.02500
C1709       C  0.45673584  0.34150272  0.89113096     0.27300
C1710       C  0.43611040  0.37566369  0.88563008    -0.25300
N1711       N  0.50730897  0.45273476  0.90542836    -0.82700
H1712       H  0.53705783  0.38335363  0.91622644     0.13100
C1713       C  0.51752794  0.30871886  0.90657597     0.02400
N1714       N  0.44093519  0.30403891  0.88469789    -0.81200
H1715       H  0.40791111  0.37310027  0.87709111     0.17900
C1716       C  0.50180820  0.27675251  0.91904911    -0.26100
C1717       C  0.52052420  0.24031247  0.91927076     0.35900
C1718       C  0.55586992  0.23609136  0.90713125    -0.20100
C1719       C  0.57343160  0.26897668  0.89675963    -0.25400
C1720       C  0.55458670  0.30511772  0.89615331     0.27300
H1721       H  0.47373747  0.27966339  0.92744503     0.13100
N1722       N  0.50217216  0.20690015  0.92992233    -0.82600
H1723       H  0.60049661  0.26553877  0.88726285     0.17900
N1724       N  0.57182381  0.33737609  0.88363624    -0.81200
H1725       H  0.47563552  0.21460972  0.93746066     0.33600
H1726       H  0.52011305  0.19763912  0.94378243     0.38100
H1727       H  0.59924537  0.33000115  0.87720655     0.33500
H1728       H  0.55423257  0.34322825  0.86893957     0.30200
H1729       H  0.41362397  0.30698311  0.87667863     0.33500
H1730       H  0.45925389  0.29206883  0.87199850     0.30200
H1731       H  0.51371765  0.46485913  0.88892069     0.38100
H1732       H  0.53393717  0.44947916  0.91422146     0.33600
C1733       C  0.48832983  0.00216339  0.69027322    -0.20200
C1734       C  0.50999961  0.03507250  0.69814523     0.36000
C1735       C  0.52350403  0.03735534  0.72181851    -0.26200
C1736       C  0.51600816  0.00745181  0.73828418     0.02500
C1737       C  0.49791162  0.97284751  0.72979800     0.27300
C1738       C  0.48419555  0.97063104  0.70605586    -0.25300
N1739       N  0.51486107  0.06785336  0.68253212    -0.82700
H1740       H  0.53727014  0.06404809  0.72788761     0.13100
C1741       C  0.52208296  0.01509947  0.76454141     0.02400
N1742       N  0.49189812  0.94066556  0.74567668    -0.81200
H1743       H  0.46692740  0.94563784  0.70058532     0.17900
C1744       C  0.49036991  0.01071129  0.77995016    -0.26100
C1745       C  0.49198854  0.02387735  0.80356284     0.35900
C1746       C  0.52605151  0.04173148  0.81275654    -0.20100
C1747       C  0.55866200  0.04423585  0.79782454    -0.25400
C1748       C  0.55719422  0.03080510  0.77403240     0.27300
H1749       H  0.46299782  0.99949197  0.77314074     0.13100
N1750       N  0.45753487  0.02214916  0.81762592    -0.82600
H1751       H  0.58457246  0.05911947  0.80422739     0.17900
N1752       N  0.59088423  0.03429840  0.75925614    -0.81200
H1753       H  0.43575800  0.03761832  0.80877532     0.33600
H1754       H  0.44854630  0.99302828  0.81876053     0.38100
H1755       H  0.61423896  0.04640711  0.76871363     0.33500
H1756       H  0.59913540  0.00613397  0.75454940     0.30200
H1757       H  0.47807422  0.91753146  0.73694749     0.33500
H1758       H  0.51931968  0.93071150  0.75089372     0.30200
H1759       H  0.53172559  0.05871295  0.66831144     0.38100
H1760       H  0.53048965  0.09022714  0.69088517     0.33600
loop_ 
_geom_bond_atom_site_label_1 
_geom_bond_atom_site_label_2 
_geom_bond_distance 
_geom_bond_site_symmetry_2 
_ccdc_geom_bond_type 
O1           Ni7   1.907       .  S
O1           C22   1.268       .  A
O2          Ni25   1.913       .  S
O2           C11   1.278       .  A
O3           Ni7   1.900       .  S
O3          Ni25   1.884       .  S
O3          Ni19   1.950       .  S
O3           H26   0.967       .  S
C4           O21   1.281       .  A
C4           O13   1.285       .  A
C4         C1606   1.511       .  S
O5          Ni24   1.945       .  S
O5           C11   1.281       .  A
O6          Ni24   1.933       .  S
O6            C8   1.269       .  A
Ni7          O10   1.933       .  S
Ni7          O12   1.888       .  S
C8           O18   1.263       .  A
C8         C1718   1.477       .  S
O9          Ni25   1.913       .  S
O9           C15   1.263       .  A
O10          C15   1.266       .  A
C11        C1621   1.509       .  S
O12          C14   1.274       .  A
O13         Ni24   1.954       .  S
C14          O20   1.309       .  A
C14        C1746   1.502       .  S
C15        C1662   1.497       .  S
H16          O17   0.965       .  S
O17         Ni25   1.901       .  S
O17         Ni19   1.886       .  S
O17         Ni24   1.911       .  S
O18         Ni19   1.912       .  S
Ni19         O23   1.882       .  S
Ni19         O21   1.929       .  S
O20         Ni25   2.027       .  S
C22          O23   1.264       .  A
C22        C1677   1.460       .  S
O27         Ni33   1.919       .  S
O27          C48   1.272   1_545  A
O28         Ni51   1.912       .  S
O28          C37   1.280       .  A
O29         Ni33   1.873       .  S
O29         Ni51   1.872   1_545  S
O29         Ni45   1.919   1_545  S
O29          H52   0.967       .  S
C30          O47   1.283       .  A
C30          O39   1.285       .  A
C30        C1466   1.509       .  S
O31         Ni50   1.938       .  S
O31          C37   1.280       .  A
O32         Ni50   1.926       .  S
O32          C34   1.268       .  A
Ni33         O36   1.923       .  S
Ni33         O38   1.895       .  S
C34          O44   1.265       .  A
C34        C1522   1.473       .  S
O35         Ni51   1.931   1_545  S
O35          C41   1.278       .  A
O36          C41   1.277       .  A
C37        C1494   1.489   1_565  S
O38          C40   1.265       .  A
O39         Ni50   1.951       .  S
C40          O46   1.296   1_545  A
C40        C1733   1.504       .  S
C41        C1565   1.496       .  S
H42          O43   0.966       .  S
O43         Ni51   1.918       .  S
O43         Ni45   1.891       .  S
O43         Ni50   1.897       .  S
O44         Ni45   1.918       .  S
Ni45         O49   1.886       .  S
Ni45         O47   1.929       .  S
O46         Ni51   1.998       .  S
C48          O49   1.267       .  A
C48        C1550   1.456       .  S
O53         Ni59   1.912       .  S
O53          C74   1.270   1_545  A
O54         Ni77   1.913       .  S
O54          C63   1.275   1_545  A
O55         Ni59   1.897       .  S
O55         Ni77   1.893       .  S
O55         Ni71   1.948   1_545  S
O55          H78   0.964       .  S
C56          O73   1.279       .  A
C56          O65   1.279       .  A
C56        C1341   1.506       .  S
O57         Ni76   1.928       .  S
O57          C63   1.276       .  A
O58         Ni76   1.930       .  S
O58          C60   1.268       .  A
Ni59         O62   1.930       .  S
Ni59         O64   1.891       .  S
C60          O70   1.262       .  A
C60        C1649   1.471       .  S
O61         Ni77   1.903       .  S
O61          C67   1.261       .  A
O62          C67   1.268       .  A
C63        C1382   1.482   1_565  S
O64          C66   1.274       .  A
O65         Ni76   1.943       .  S
C66          O72   1.303       .  A
C66        C1397   1.493       .  S
C67        C1425   1.487       .  S
H68          O69   0.967       .  S
O69         Ni77   1.899   1_565  S
O69         Ni71   1.886       .  S
O69         Ni76   1.911       .  S
O70         Ni71   1.917       .  S
Ni71         O75   1.876       .  S
Ni71         O73   1.924       .  S
O72         Ni77   2.012       .  S
C74          O75   1.260       .  A
C74        C1537   1.473       .  S
O79         Ni85   1.914   1_655  S
O79         C100   1.268       .  A
O80        Ni103   1.910       .  S
O80          C89   1.276       .  A
O81         Ni85   1.902   1_655  S
O81        Ni103   1.884       .  S
O81         Ni97   1.948       .  S
O81         H104   0.953       .  S
C82          O99   1.279       .  A
C82          O91   1.282       .  A
C82        C1229   1.503       .  S
O83        Ni102   1.934       .  S
O83          C89   1.278       .  A
O84        Ni102   1.926       .  S
O84          C86   1.267       .  A
Ni85         O88   1.936       .  S
Ni85         O90   1.894   1_455  S
C86          O96   1.265       .  A
C86        C1285   1.473       .  S
O87        Ni103   1.904   1_455  S
O87          C93   1.260       .  A
O88          C93   1.269       .  A
C89        C1270   1.494       .  S
O90          C92   1.275       .  A
O91        Ni102   1.955       .  S
C92          O98   1.306       .  A
C92        C1410   1.499       .  S
C93        C1509   1.493       .  S
H94          O95   0.968       .  S
O95        Ni103   1.906       .  S
O95         Ni97   1.885       .  S
O95        Ni102   1.912       .  S
O96         Ni97   1.919       .  S
Ni97        O101   1.870       .  S
Ni97         O99   1.922       .  S
O98        Ni103   2.016       .  S
C100        O101   1.259       .  A
C100       C1313   1.443       .  S
O105       Ni111   1.932       .  S
O105        C126   1.272       .  A
O106       Ni129   1.908       .  S
O106        C115   1.279       .  A
O107       Ni111   1.893       .  S
O107       Ni129   1.885       .  S
O107       Ni123   1.916       .  S
O107        H130   0.966       .  S
C108        O125   1.278       .  A
C108        O117   1.282       .  A
C108       C1354   1.500       .  S
O109       Ni128   1.931       .  S
O109        C115   1.276       .  A
O110       Ni128   1.928       .  S
O110        C112   1.268       .  A
Ni111       O114   1.932       .  S
Ni111       O116   1.890       .  S
C112        O122   1.262       .  A
C112       C1186   1.471       .  S
O113       Ni129   1.920       .  S
O113        C119   1.273       .  A
O114        C119   1.278       .  A
C115       C1117   1.478       .  S
O116        C118   1.268       .  A
O117       Ni128   1.944       .  S
C118        O124   1.295       .  A
C118       C1201   1.501       .  S
C119       C1705   1.499       .  S
H120        O121   0.964       .  S
O121       Ni129   1.920       .  S
O121       Ni123   1.887       .  S
O121       Ni128   1.914       .  S
O122       Ni123   1.906       .  S
Ni123       O127   1.868       .  S
Ni123       O125   1.926       .  S
O124       Ni129   1.992       .  S
C126        O127   1.259       .  A
C126       C1145   1.467       .  S
O131       Ni137   1.913       .  S
O131        C152   1.270       .  A
O132       Ni155   1.902       .  S
O132        C141   1.277       .  A
O133       Ni137   1.873       .  S
O133       Ni155   1.865       .  S
O133       Ni149   1.915       .  S
O133        H156   0.964       .  S
C134        O151   1.288       .  A
C134        O143   1.284       .  A
C134       C1242   1.507       .  S
O135       Ni154   1.945       .  S
O135        C141   1.282       .  A
O136       Ni154   1.931       .  S
O136        C138   1.272       .  A
Ni137       O140   1.915       .  S
Ni137       O142   1.903       .  S
C138        O148   1.270       .  A
C138       C1578   1.480       .  S
O139       Ni155   1.942       .  S
O139        C145   1.283       .  A
O140        C145   1.277       .  A
C141       C1061   1.486       .  S
O142        C144   1.263       .  A
O143       Ni154   1.949       .  S
C144        O150   1.288       .  A
C144       C1214   1.502       .  S
C145       C1089   1.490       .  S
H146        O147   0.966       .  S
O147       Ni155   1.915       .  S
O147       Ni149   1.890       .  S
O147       Ni154   1.889       .  S
O148       Ni149   1.923       .  S
Ni149       O153   1.895       .  S
Ni149       O151   1.941       .  S
O150       Ni155   1.986       .  S
C152        O153   1.277       .  A
C152       C1690   1.470       .  S
O157       Ni163   1.913   1_655  S
O157        C178   1.271       .  A
O158       Ni181   1.903       .  S
O158        C167   1.276       .  A
O159       Ni163   1.876   1_655  S
O159       Ni181   1.871       .  S
O159       Ni175   1.917       .  S
O159        H182   0.963       .  S
C160        O177   1.286       .  A
C160        O169   1.281       .  A
C160       C1593   1.498       .  S
O161       Ni180   1.931       .  S
O161        C167   1.279       .  A
O162       Ni180   1.915       .  S
O162        C164   1.268       .  A
Ni163       O166   1.916       .  S
Ni163       O168   1.904       .  S
C164        O174   1.270       .  A
C164       C1438   1.466       .  S
O165       Ni181   1.944   1_455  S
O165        C171   1.281       .  A
O166        C171   1.277       .  A
C167       C1018   1.493       .  S
O168        C170   1.263   1_455  A
O169       Ni180   1.937       .  S
C170        O176   1.286       .  A
C170       C1033   1.503       .  S
C171       C1173   1.491       .  S
H172        O173   0.966       .  S
O173       Ni181   1.914       .  S
O173       Ni175   1.894       .  S
O173       Ni180   1.884       .  S
O174       Ni175   1.928       .  S
Ni175       O179   1.898       .  S
Ni175       O177   1.936       .  S
O176       Ni181   1.981       .  S
C178        O179   1.276       .  A
C178       C1326   1.457       .  S
O183       Ni189   1.926       .  S
O183        C204   1.272       .  A
O184       Ni207   1.906       .  S
O184        C193   1.278       .  A
O185       Ni189   1.884       .  S
O185       Ni207   1.880       .  S
O185       Ni201   1.912       .  S
O185        H208   0.966       .  S
C186        O203   1.282       .  A
C186        O195   1.282       .  A
C186       C1453   1.500       .  S
O187       Ni206   1.928       .  S
O187        C193   1.279       .  A
O188       Ni206   1.927       .  S
O188        C190   1.268       .  A
Ni189       O192   1.919       .  S
Ni189       O194   1.897       .  S
C190        O200   1.263       .  A
C190       C1102   1.474       .  S
O191       Ni207   1.935       .  S
O191        C197   1.278       .  A
O192        C197   1.276       .  A
C193        C977   1.489       .  S
O194        C196   1.268       .  A
O195       Ni206   1.941       .  S
C196        O202   1.291       .  A
C196       C1046   1.500       .  S
C197       C1298   1.500       .  S
H198        O199   0.967       .  S
O199       Ni207   1.918       .  S
O199       Ni201   1.885       .  S
O199       Ni206   1.901       .  S
O200       Ni201   1.901       .  S
Ni201       O205   1.872       .  S
Ni201       O203   1.933       .  S
O202       Ni207   1.983       .  S
C204        O205   1.261       .  A
C204       C1158   1.468       .  S
O209       Ni215   1.942       .  S
O209        C230   1.276       .  A
O210       Ni233   1.885       .  S
O210        C219   1.264       .  A
O211       Ni215   1.925       .  S
O211       Ni233   1.892       .  S
O211       Ni227   1.907       .  S
O211        H234   0.967       .  S
C212        O229   1.262       .  A
C212        O221   1.269       .  A
C212        C865   1.496       .  S
O213       Ni232   1.908       .  S
O213        C219   1.268       .  A
O214       Ni232   1.888       .  S
O214        C216   1.270       .  A
Ni215       O218   1.950       .  S
Ni215       O220   1.927       .  S
C216        O226   1.302       .  A
C216        C962   1.498       .  S
O217       Ni233   1.927       .  S
O217        C223   1.280       .  A
O218        C223   1.281       .  A
C219        C934   1.464       .  S
O220        C222   1.269       .  A
O221       Ni232   1.938       .  S
C222        O228   1.264       .  A
C222        C893   1.472       .  S
C223        C837   1.502       .  S
H224        O225   0.966       .  S
O225       Ni233   1.948       .  S
O225       Ni227   1.894       .  S
O225       Ni232   1.908       .  S
O226       Ni227   2.015       .  S
Ni227       O231   1.901       .  S
Ni227       O229   1.908       .  S
O228       Ni233   1.912       .  S
C230        O231   1.272       .  A
C230       C1074   1.477       .  S
O235       Ni241   1.949       .  S
O235        C256   1.284       .  A
O236       Ni259   1.901       .  S
O236        C245   1.275       .  A
O237       Ni241   1.889       .  S
O237       Ni259   1.890       .  S
O237       Ni253   1.918       .  S
O237        H260   0.966       .  S
C238        O255   1.283       .  A
C238        O247   1.276       .  A
C238        C809   1.480       .  S
O239       Ni258   1.908       .  S
O239        C245   1.270       .  A
O240       Ni258   1.901       .  S
O240        C242   1.261       .  A
Ni241       O244   1.955       .  S
Ni241       O246   1.931       .  S
C242        O252   1.288       .  A
C242        C949   1.500       .  S
O243       Ni259   1.930       .  S
O243        C249   1.285       .  A
O244        C249   1.285       .  A
C245        C781   1.458       .  S
O246        C248   1.273       .  A
O247       Ni258   1.911       .  S
C248        O254   1.270       .  A
C248        C753   1.491       .  S
C249        C725   1.495       .  S
H250        O251   0.965       .  S
O251       Ni259   1.916       .  S
O251       Ni253   1.866       .  S
O251       Ni258   1.866       .  S
O252       Ni253   1.988       .  S
Ni253       O257   1.900       .  S
Ni253       O255   1.953       .  S
O254       Ni259   1.924       .  S
C256        O257   1.277       .  A
C256       C1130   1.490       .  S
O261       Ni267   1.942       .  S
O261        C282   1.281       .  A
O262       Ni285   1.911       .  S
O262        C271   1.276       .  A
O263       Ni267   1.888       .  S
O263       Ni285   1.896       .  S
O263       Ni279   1.911       .  S
O263        H286   0.965       .  S
C264        O281   1.282       .  A
C264        O273   1.277       .  A
C264        C906   1.477       .  S
O265       Ni284   1.913   1_545  S
O265        C271   1.270       .  A
O266       Ni284   1.898       .  S
O266        C268   1.262   1_565  A
Ni267       O270   1.941       .  S
Ni267       O272   1.925       .  S
C268        O278   1.287       .  A
C268        C697   1.501       .  S
O269       Ni285   1.927       .  S
O269        C275   1.283       .  A
O270        C275   1.282       .  A
C271        C669   1.470       .  S
O272        C274   1.272       .  A
O273       Ni284   1.907       .  S
C274        O280   1.271       .  A
C274        C654   1.488       .  S
C275        C626   1.488       .  S
H276        O277   0.967       .  S
O277       Ni285   1.915       .  S
O277       Ni279   1.877       .  S
O277       Ni284   1.873   1_545  S
O278       Ni279   1.985       .  S
Ni279       O283   1.913       .  S
Ni279       O281   1.947   1_545  S
O280       Ni285   1.928       .  S
C282        O283   1.280       .  A
C282       C1481   1.498       .  S
O287       Ni293   1.948       .  S
O287        C308   1.282       .  A
O288       Ni311   1.892       .  S
O288        C297   1.271       .  A
O289       Ni293   1.894       .  S
O289       Ni311   1.893       .  S
O289       Ni305   1.914       .  S
O289        H312   0.967       .  S
C290        O307   1.283       .  A
C290        O299   1.277       .  A
C290        C598   1.489       .  S
O291       Ni310   1.923       .  S
O291        C297   1.273       .  A
O292       Ni310   1.899       .  S
O292        C294   1.264       .  A
Ni293       O296   1.950       .  S
Ni293       O298   1.926       .  S
C294        O304   1.289       .  A
C294        C710   1.500   1_565  S
O295       Ni311   1.925       .  S
O295        C301   1.282       .  A
O296        C301   1.283       .  A
C297        C921   1.467       .  S
O298        C300   1.271       .  A
O299       Ni310   1.915       .  S
C300        O306   1.269       .  A
C300        C822   1.492       .  S
C301        C570   1.491       .  S
H302        O303   0.966       .  S
O303       Ni311   1.910       .  S
O303       Ni305   1.872       .  S
O303       Ni310   1.872       .  S
O304       Ni305   1.985       .  S
Ni305       O309   1.911       .  S
Ni305       O307   1.944       .  S
O306       Ni311   1.919       .  S
C308        O309   1.278       .  A
C308       C1634   1.487       .  S
O313       Ni319   1.937       .  S
O313        C334   1.282       .  A
O314       Ni337   1.877       .  S
O314        C323   1.263       .  A
O315       Ni319   1.900       .  S
O315       Ni337   1.885       .  S
O315       Ni331   1.920       .  S
O315        H338   0.967       .  S
C316        O333   1.281       .  A
C316        O325   1.275       .  A
C316        C766   1.490       .  S
O317       Ni336   1.910   1_455  S
O317        C323   1.268       .  A
O318       Ni336   1.900       .  S
O318        C320   1.267   1_655  A
Ni319       O322   1.951       .  S
Ni319       O324   1.940       .  S
C320        O330   1.293       .  A
C320        C529   1.503       .  S
O321       Ni337   1.925       .  S
O321        C327   1.282       .  A
O322        C327   1.284       .  A
C323        C501   1.454       .  S
O324        C326   1.272       .  A
O325       Ni336   1.915       .  S
C326        O332   1.262       .  A
C326        C486   1.479       .  S
C327        C557   1.498       .  S
H328        O329   0.965   1_655  S
O329       Ni337   1.920       .  S
O329       Ni331   1.874       .  S
O329       Ni336   1.876   1_455  S
O330       Ni331   1.989       .  S
Ni331       O335   1.904       .  S
Ni331       O333   1.947   1_455  S
O332       Ni337   1.911       .  S
C334        O335   1.280       .  A
C334       C1005   1.484       .  S
O339       Ni345   1.942       .  S
O339        C360   1.280       .  A
O340       Ni363   1.874       .  S
O340        C349   1.261       .  A
O341       Ni345   1.912       .  S
O341       Ni363   1.881       .  S
O341       Ni357   1.893       .  S
O341        H364   0.966       .  S
C342        O359   1.261       .  A
C342        O351   1.268       .  A
C342        C445   1.487       .  S
O343       Ni362   1.916       .  S
O343        C349   1.270       .  A
O344       Ni362   1.890       .  S
O344        C346   1.275       .  A
Ni345       O348   1.948       .  S
Ni345       O350   1.936       .  S
C346        O356   1.305       .  A
C346        C542   1.496       .  S
O347       Ni363   1.919       .  S
O347        C353   1.279       .  A
O348        C353   1.282       .  A
C349        C794   1.457       .  S
O350        C352   1.270       .  A
O351       Ni362   1.937       .  S
C352        O358   1.261       .  A
C352        C878   1.475       .  S
C353        C613   1.490       .  S
H354        O355   0.967       .  S
O355       Ni363   1.947       .  S
O355       Ni357   1.885       .  S
O355       Ni362   1.902       .  S
O356       Ni357   2.016       .  S
Ni357       O361   1.903       .  S
Ni357       O359   1.905       .  S
O358       Ni363   1.908       .  S
C360        O361   1.275       .  A
C360        C990   1.497       .  S
O365       Ni371   1.941       .  S
O365        C386   1.281       .  A
O366       Ni389   1.875       .  S
O366        C375   1.262       .  A
O367       Ni371   1.906       .  S
O367       Ni389   1.888       .  S
O367       Ni383   1.923       .  S
O367        H390   0.966       .  S
C368        O385   1.279       .  A
C368        O377   1.274       .  A
C368        C641   1.487       .  S
O369       Ni388   1.914       .  S
O369        C375   1.268   1_655  A
O370       Ni388   1.901       .  S
O370        C372   1.269       .  A
Ni371       O374   1.952       .  S
Ni371       O376   1.933       .  S
C372        O382   1.294   1_655  A
C372        C417   1.504       .  S
O373       Ni389   1.927       .  S
O373        C379   1.281       .  A
O374        C379   1.283       .  A
C375        C514   1.445       .  S
O376        C378   1.270       .  A
O377       Ni388   1.915       .  S
C378        O384   1.261       .  A
C378        C458   1.470       .  S
C379        C850   1.498       .  S
H380        O381   0.967       .  S
O381       Ni389   1.919   1_655  S
O381       Ni383   1.878   1_655  S
O381       Ni388   1.883       .  S
O382       Ni383   1.991       .  S
Ni383       O387   1.913       .  S
Ni383       O385   1.941   1_455  S
O384       Ni389   1.901       .  S
C386        O387   1.282       .  A
C386       C1257   1.494       .  S
O391       Ni397   1.927       .  S
O391        C412   1.275       .  A
O392       Ni415   1.882       .  S
O392        C401   1.264       .  A
O393       Ni397   1.916       .  S
O393       Ni415   1.889       .  S
O393       Ni409   1.908       .  S
O393        H416   0.969       .  S
C394        O411   1.265       .  A
C394        O403   1.269       .  A
C394        C473   1.501       .  S
O395       Ni414   1.916       .  S
O395        C401   1.269   1_565  A
O396       Ni414   1.893   1_545  S
O396        C398   1.275       .  A
Ni397       O400   1.946       .  S
Ni397       O402   1.928       .  S
C398        O408   1.306       .  A
C398        C430   1.500       .  S
O399       Ni415   1.928       .  S
O399        C405   1.280       .  A
O400        C405   1.280       .  A
C401        C682   1.469       .  S
O402        C404   1.267       .  A
O403       Ni414   1.937       .  S
C404        O410   1.263       .  A
C404        C585   1.473       .  S
C405        C738   1.501       .  S
H406        O407   0.965       .  S
O407       Ni415   1.950       .  S
O407       Ni409   1.892       .  S
O407       Ni414   1.904   1_545  S
O408       Ni409   2.019       .  S
Ni409       O413   1.914       .  S
Ni409       O411   1.921   1_545  S
O410       Ni415   1.912       .  S
C412        O413   1.279       .  A
C412       C1369   1.491       .  S
C417        C418   1.415   1_565  A
C417        C422   1.407   1_655  A
C418        C419   1.412       .  A
C418        N423   1.432       .  S
C419        C420   1.408       .  A
C419        H424   1.084       .  S
C420        C425   1.523       .  S
C420        C421   1.428   1_655  A
C421        C422   1.420   1_545  A
C421        N426   1.437   1_545  S
C422        H427   1.084       .  S
N423        H443   1.046       .  S
N423        H444   1.046       .  S
C425        C428   1.413       .  A
C425        C432   1.416   1_545  A
N426        H441   1.045       .  S
N426        H442   1.044   1_565  S
C428        C429   1.422       .  A
C428        H433   1.083       .  S
C429        C430   1.413       .  A
C429        N434   1.436       .  S
C430        C431   1.407   1_545  A
C431        C432   1.415       .  A
C431        H435   1.084       .  S
C432        N436   1.432   1_655  S
N434        H437   1.045       .  S
N434        H438   1.046       .  S
N436        H439   1.046   1_455  S
N436        H440   1.046       .  S
C445        C446   1.418       .  A
C445        C450   1.405       .  A
C446        C447   1.408       .  A
C446        N451   1.438       .  S
C447        C448   1.400       .  A
C447        H452   1.084       .  S
C448        C453   1.484   1_655  S
C448        C449   1.411       .  A
C449        C450   1.407       .  A
C449        N454   1.438   1_655  S
C450        H455   1.084       .  S
N451        H471   1.045       .  S
N451        H472   1.046       .  S
C453        C456   1.402       .  A
C453        C460   1.411   1_455  A
N454        H469   1.046       .  S
N454        H470   1.046       .  S
C456        C457   1.401       .  A
C456        H461   1.084       .  S
C457        C458   1.413       .  A
C457        N462   1.432       .  S
C458        C459   1.403   1_455  A
C459        C460   1.407       .  A
C459        H463   1.084       .  S
C460        N464   1.438       .  S
N462        H465   1.045       .  S
N462        H466   1.045       .  S
N464        H467   1.046       .  S
N464        H468   1.046       .  S
C473        C474   1.421       .  A
C473        C478   1.408       .  A
C474        C475   1.414       .  A
C474        N479   1.437       .  S
C475        C476   1.402       .  A
C475        H480   1.083       .  S
C476        C481   1.492   1_655  S
C476        C477   1.410       .  A
C477        C478   1.408       .  A
C477        N482   1.437       .  S
C478        H483   1.083       .  S
N479        H499   1.046       .  S
N479        H500   1.046       .  S
C481        C484   1.402       .  A
C481        C488   1.413   1_455  A
N482        H497   1.046       .  S
N482        H498   1.045       .  S
C484        C485   1.403       .  A
C484        H489   1.084       .  S
C485        C486   1.415       .  A
C485        N490   1.433       .  S
C486        C487   1.404   1_455  A
C487        C488   1.413       .  A
C487        H491   1.084       .  S
C488        N492   1.437       .  S
N490        H493   1.044       .  S
N490        H494   1.045       .  S
N492        H495   1.046       .  S
N492        H496   1.045       .  S
C501        C502   1.413       .  A
C501        C506   1.403       .  A
C502        C503   1.391       .  A
C502        N507   1.438       .  S
C503        C504   1.395       .  A
C503        H508   1.084       .  S
C504        C509   1.446       .  S
C504        C505   1.402       .  A
C505        C506   1.392       .  A
C505        N510   1.438   1_455  S
C506        H511   1.084       .  S
N507        H527   1.045       .  S
N507        H528   1.046       .  S
C509        C512   1.396   1_455  A
C509        C516   1.401       .  A
N510        H525   1.045       .  S
N510        H526   1.046   1_655  S
C512        C513   1.390       .  A
C512        H517   1.084       .  S
C513        C514   1.415   1_655  A
C513        N518   1.440       .  S
C514        C515   1.401       .  A
C515        C516   1.390       .  A
C515        H519   1.084       .  S
C516        N520   1.438       .  S
N518        H521   1.046       .  S
N518        H522   1.041       .  S
N520        H523   1.046       .  S
N520        H524   1.046       .  S
C529        C530   1.417   1_455  A
C529        C534   1.408       .  A
C530        C531   1.411       .  A
C530        N535   1.436       .  S
C531        C532   1.405   1_655  A
C531        H536   1.083       .  S
C532        C537   1.519   1_455  S
C532        C533   1.421       .  A
C533        C534   1.424       .  A
C533        N538   1.436       .  S
C534        H539   1.083       .  S
N535        H555   1.045       .  S
N535        H556   1.046       .  S
C537        C540   1.413       .  A
C537        C544   1.415   1_655  A
N538        H553   1.045       .  S
N538        H554   1.046       .  S
C540        C541   1.420       .  A
C540        H545   1.083       .  S
C541        C542   1.412       .  A
C541        N546   1.436       .  S
C542        C543   1.408       .  A
C543        C544   1.414   1_655  A
C543        H547   1.084       .  S
C544        N548   1.432       .  S
N546        H549   1.046       .  S
N546        H550   1.045       .  S
N548        H551   1.045   1_455  S
N548        H552   1.046       .  S
C557        C558   1.417       .  A
C557        C562   1.409       .  A
C558        C559   1.414       .  A
C558        N563   1.438       .  S
C559        C560   1.404       .  A
C559        H564   1.083       .  S
C560        C565   1.497       .  S
C560        C561   1.411       .  A
C561        C562   1.412       .  A
C561        N566   1.438       .  S
C562        H567   1.084       .  S
N563        H583   1.045       .  S
N563        H584   1.046       .  S
C565        C568   1.405       .  A
C565        C572   1.412       .  A
N566        H581   1.046       .  S
N566        H582   1.046       .  S
C568        C569   1.415       .  A
C568        H573   1.083       .  S
C569        C570   1.415       .  A
C569        N574   1.438       .  S
C570        C571   1.405       .  A
C571        C572   1.411       .  A
C571        H575   1.084       .  S
C572        N576   1.438       .  S
N574        H577   1.046       .  S
N574        H578   1.046       .  S
N576        H579   1.045       .  S
N576        H580   1.046       .  S
C585        C586   1.410       .  A
C585        C590   1.403       .  A
C586        C587   1.412       .  A
C586        N591   1.437       .  S
C587        C588   1.404       .  A
C587        H592   1.083   1_545  S
C588        C593   1.480       .  S
C588        C589   1.408       .  A
C589        C590   1.402       .  A
C589        N594   1.438       .  S
C590        H595   1.084       .  S
N591        H611   1.045       .  S
N591        H612   1.046   1_545  S
C593        C596   1.399   1_545  A
C593        C600   1.408   1_545  A
N594        H609   1.046       .  S
N594        H610   1.045       .  S
C596        C597   1.402       .  A
C596        H601   1.085       .  S
C597        C598   1.418       .  A
C597        N602   1.438       .  S
C598        C599   1.410       .  A
C599        C600   1.410       .  A
C599        H603   1.084       .  S
C600        N604   1.437   1_565  S
N602        H605   1.046       .  S
N602        H606   1.045       .  S
N604        H607   1.046       .  S
N604        H608   1.045       .  S
C613        C614   1.416       .  A
C613        C618   1.405       .  A
C614        C615   1.412       .  A
C614        N619   1.437       .  S
C615        C616   1.404       .  A
C615        H620   1.084       .  S
C616        C621   1.494       .  S
C616        C617   1.412       .  A
C617        C618   1.409       .  A
C617        N622   1.438       .  S
C618        H623   1.084       .  S
N619        H639   1.045       .  S
N619        H640   1.046       .  S
C621        C624   1.405       .  A
C621        C628   1.412       .  A
N622        H637   1.046       .  S
N622        H638   1.046       .  S
C624        C625   1.412       .  A
C624        H629   1.084       .  S
C625        C626   1.413       .  A
C625        N630   1.436       .  S
C626        C627   1.406       .  A
C627        C628   1.409       .  A
C627        H631   1.084       .  S
C628        N632   1.438       .  S
N630        H633   1.046       .  S
N630        H634   1.046       .  S
N632        H635   1.046       .  S
N632        H636   1.046       .  S
C641        C642   1.415       .  A
C641        C646   1.406       .  A
C642        C643   1.408   1_565  A
C642        N647   1.437   1_565  S
C643        C644   1.403   1_545  A
C643        H648   1.084       .  S
C644        C649   1.490   1_565  S
C644        C645   1.411       .  A
C645        C646   1.407       .  A
C645        N650   1.438       .  S
C646        H651   1.084       .  S
N647        H667   1.045       .  S
N647        H668   1.046       .  S
C649        C652   1.401   1_545  A
C649        C656   1.412       .  A
N650        H665   1.046       .  S
N650        H666   1.046       .  S
C652        C653   1.400   1_565  A
C652        H657   1.084       .  S
C653        C654   1.413       .  A
C653        N658   1.433   1_545  S
C654        C655   1.408       .  A
C655        C656   1.414       .  A
C655        H659   1.083       .  S
C656        N660   1.437       .  S
N658        H661   1.046       .  S
N658        H662   1.046       .  S
N660        H663   1.046       .  S
N660        H664   1.045       .  S
C669        C670   1.406       .  A
C669        C674   1.407       .  A
C670        C671   1.397       .  A
C670        N675   1.431       .  S
C671        C672   1.402       .  A
C671        H676   1.084       .  S
C672        C677   1.467       .  S
C672        C673   1.404       .  A
C673        C674   1.399       .  A
C673        N678   1.437   1_545  S
C674        H679   1.084   1_545  S
N675        H695   1.046       .  S
N675        H696   1.045       .  S
C677        C680   1.402   1_545  A
C677        C684   1.403       .  A
N678        H693   1.046       .  S
N678        H694   1.045       .  S
C680        C681   1.398       .  A
C680        H685   1.084       .  S
C681        C682   1.409   1_565  A
C681        N686   1.438       .  S
C682        C683   1.408       .  A
C683        C684   1.399       .  A
C683        H687   1.084       .  S
C684        N688   1.437       .  S
N686        H689   1.046       .  S
N686        H690   1.045       .  S
N688        H691   1.046       .  S
N688        H692   1.046       .  S
C697        C698   1.416       .  A
C697        C702   1.406       .  A
C698        C699   1.408       .  A
C698        N703   1.434   1_545  S
C699        C700   1.406       .  A
C699        H704   1.084   1_545  S
C700        C705   1.517       .  S
C700        C701   1.427       .  A
C701        C702   1.418       .  A
C701        N706   1.437       .  S
C702        H707   1.084       .  S
N703        H723   1.046       .  S
N703        H724   1.046       .  S
C705        C708   1.414       .  A
C705        C712   1.414       .  A
N706        H721   1.044       .  S
N706        H722   1.046       .  S
C708        C709   1.422       .  A
C708        H713   1.083       .  S
C709        C710   1.413       .  A
C709        N714   1.436   1_545  S
C710        C711   1.410       .  A
C711        C712   1.409       .  A
C711        H715   1.084       .  S
C712        N716   1.433       .  S
N714        H717   1.045       .  S
N714        H718   1.045   1_565  S
N716        H719   1.046       .  S
N716        H720   1.046       .  S
C725        C726   1.414       .  A
C725        C730   1.405       .  A
C726        C727   1.415       .  A
C726        N731   1.437       .  S
C727        C728   1.408       .  A
C727        H732   1.083       .  S
C728        C733   1.508       .  S
C728        C729   1.416       .  A
C729        C730   1.415       .  A
C729        N734   1.438       .  S
C730        H735   1.084       .  S
N731        H751   1.043       .  S
N731        H752   1.046       .  S
C733        C736   1.408       .  A
C733        C740   1.415       .  A
N734        H749   1.045       .  S
N734        H750   1.046       .  S
C736        C737   1.417       .  A
C736        H741   1.083       .  S
C737        C738   1.417       .  A
C737        N742   1.437       .  S
C738        C739   1.408       .  A
C739        C740   1.412       .  A
C739        H743   1.084       .  S
C740        N744   1.438       .  S
N742        H745   1.046       .  S
N742        H746   1.045       .  S
N744        H747   1.046       .  S
N744        H748   1.046       .  S
C753        C754   1.415       .  A
C753        C758   1.408       .  A
C754        C755   1.398       .  A
C754        N759   1.433       .  S
C755        C756   1.399       .  A
C755        H760   1.084       .  S
C756        C761   1.488       .  S
C756        C757   1.412       .  A
C757        C758   1.415       .  A
C757        N762   1.437       .  S
C758        H763   1.083       .  S
N759        H779   1.046       .  S
N759        H780   1.046       .  S
C761        C764   1.402       .  A
C761        C768   1.409       .  A
N762        H777   1.046       .  S
N762        H778   1.046       .  S
C764        C765   1.409       .  A
C764        H769   1.084       .  S
C765        C766   1.416       .  A
C765        N770   1.436       .  S
C766        C767   1.406       .  A
C767        C768   1.406       .  A
C767        H771   1.084       .  S
C768        N772   1.437       .  S
N770        H773   1.046       .  S
N770        H774   1.043       .  S
N772        H775   1.046       .  S
N772        H776   1.046       .  S
C781        C782   1.404       .  A
C781        C786   1.402       .  A
C782        C783   1.396       .  A
C782        N787   1.432       .  S
C783        C784   1.402       .  A
C783        H788   1.084       .  S
C784        C789   1.461       .  S
C784        C785   1.404       .  A
C785        C786   1.392       .  A
C785        N790   1.436       .  S
C786        H791   1.084       .  S
N787        H807   1.045       .  S
N787        H808   1.045       .  S
C789        C792   1.404       .  A
C789        C796   1.402       .  A
N790        H805   1.046       .  S
N790        H806   1.042       .  S
C792        C793   1.395       .  A
C792        H797   1.084       .  S
C793        C794   1.403       .  A
C793        N798   1.438       .  S
C794        C795   1.407       .  A
C795        C796   1.397       .  A
C795        H799   1.084       .  S
C796        N800   1.438       .  S
N798        H801   1.046       .  S
N798        H802   1.046       .  S
N800        H803   1.045       .  S
N800        H804   1.045       .  S
C809        C810   1.411       .  A
C809        C814   1.405       .  A
C810        C811   1.404       .  A
C810        N815   1.437       .  S
C811        C812   1.401       .  A
C811        H816   1.084       .  S
C812        C817   1.482       .  S
C812        C813   1.411       .  A
C813        C814   1.409       .  A
C813        N818   1.438       .  S
C814        H819   1.084       .  S
N815        H835   1.046       .  S
N815        H836   1.046       .  S
C817        C820   1.402       .  A
C817        C824   1.407       .  A
N818        H833   1.046       .  S
N818        H834   1.046       .  S
C820        C821   1.412       .  A
C820        H825   1.083       .  S
C821        C822   1.417       .  A
C821        N826   1.437       .  S
C822        C823   1.409       .  A
C823        C824   1.401       .  A
C823        H827   1.084       .  S
C824        N828   1.439       .  S
N826        H829   1.046       .  S
N826        H830   1.046       .  S
N828        H831   1.046       .  S
N828        H832   1.046       .  S
C837        C838   1.415       .  A
C837        C842   1.409       .  A
C838        C839   1.411       .  A
C838        N843   1.431       .  S
C839        C840   1.404       .  A
C839        H844   1.084       .  S
C840        C845   1.501       .  S
C840        C841   1.413       .  A
C841        C842   1.416       .  A
C841        N846   1.438       .  S
C842        H847   1.083       .  S
N843        H863   1.046       .  S
N843        H864   1.045       .  S
C845        C848   1.405       .  A
C845        C852   1.413       .  A
N846        H861   1.045       .  S
N846        H862   1.046       .  S
C848        C849   1.415       .  A
C848        H853   1.083       .  S
C849        C850   1.417       .  A
C849        N854   1.437       .  S
C850        C851   1.407       .  A
C851        C852   1.414       .  A
C851        H855   1.084       .  S
C852        N856   1.438       .  S
N854        H857   1.046       .  S
N854        H858   1.044       .  S
N856        H859   1.046       .  S
N856        H860   1.046       .  S
C865        C866   1.414       .  A
C865        C870   1.411       .  A
C866        C867   1.403       .  A
C866        N871   1.430       .  S
C867        C868   1.402       .  A
C867        H872   1.084       .  S
C868        C873   1.488       .  S
C868        C869   1.408       .  A
C869        C870   1.411       .  A
C869        N874   1.437       .  S
C870        H875   1.082       .  S
N871        H891   1.045       .  S
N871        H892   1.045       .  S
C873        C876   1.405       .  A
C873        C880   1.409       .  A
N874        H889   1.046       .  S
N874        H890   1.045       .  S
C876        C877   1.412       .  A
C876        H881   1.083       .  S
C877        C878   1.409       .  A
C877        N882   1.437       .  S
C878        C879   1.404       .  A
C879        C880   1.405       .  A
C879        H883   1.084       .  S
C880        N884   1.438       .  S
N882        H885   1.046       .  S
N882        H886   1.045       .  S
N884        H887   1.046       .  S
N884        H888   1.045       .  S
C893        C894   1.413       .  A
C893        C898   1.402       .  A
C894        C895   1.399       .  A
C894        N899   1.433       .  S
C895        C896   1.401       .  A
C895        H900   1.084       .  S
C896        C901   1.480       .  S
C896        C897   1.412       .  A
C897        C898   1.409       .  A
C897        N902   1.438       .  S
C898        H903   1.084       .  S
N899        H919   1.045       .  S
N899        H920   1.044       .  S
C901        C904   1.405       .  A
C901        C908   1.409       .  A
N902        H917   1.046       .  S
N902        H918   1.045       .  S
C904        C905   1.413       .  A
C904        H909   1.083       .  S
C905        C906   1.413       .  A
C905        N910   1.437       .  S
C906        C907   1.402       .  A
C907        C908   1.399       .  A
C907        H911   1.084       .  S
C908        N912   1.439       .  S
N910        H913   1.046       .  S
N910        H914   1.045       .  S
N912        H915   1.046       .  S
N912        H916   1.045       .  S
C921        C922   1.412       .  A
C921        C926   1.405       .  A
C922        C923   1.398       .  A
C922        N927   1.438       .  S
C923        C924   1.397       .  A
C923        H928   1.084       .  S
C924        C929   1.457       .  S
C924        C925   1.403       .  A
C925        C926   1.397       .  A
C925        N930   1.438       .  S
C926        H931   1.084       .  S
N927        H947   1.046       .  S
N927        H948   1.046       .  S
C929        C932   1.399       .  A
C929        C936   1.402       .  A
N930        H945   1.046       .  S
N930        H946   1.046       .  S
C932        C933   1.392       .  A
C932        H937   1.085       .  S
C933        C934   1.408       .  A
C933        N938   1.433       .  S
C934        C935   1.407       .  A
C935        C936   1.400       .  A
C935        H939   1.083       .  S
C936        N940   1.437       .  S
N938        H941   1.046       .  S
N938        H942   1.046       .  S
N940        H943   1.046       .  S
N940        H944   1.046       .  S
C949        C950   1.416       .  A
C949        C954   1.407       .  A
C950        C951   1.414       .  A
C950        N955   1.438       .  S
C951        C952   1.409       .  A
C951        H956   1.083       .  S
C952        C957   1.524       .  S
C952        C953   1.420       .  A
C953        C954   1.420       .  A
C953        N958   1.431       .  S
C954        H959   1.084       .  S
N955        H975   1.045       .  S
N955        H976   1.046       .  S
C957        C960   1.414       .  A
C957        C964   1.417       .  A
N958        H973   1.045       .  S
N958        H974   1.046       .  S
C960        C961   1.417       .  A
C960        H965   1.083       .  S
C961        C962   1.418       .  A
C961        N966   1.437       .  S
C962        C963   1.407       .  A
C963        C964   1.414       .  A
C963        H967   1.084       .  S
C964        N968   1.431       .  S
N966        H969   1.045       .  S
N966        H970   1.045       .  S
N968        H971   1.045       .  S
N968        H972   1.046       .  S
C977        C978   1.411   1_455  A
C977        C982   1.409       .  A
C978        C979   1.415       .  A
C978        N983   1.436       .  S
C979        C980   1.411   1_655  A
C979        H984   1.083       .  S
C980        C985   1.494   1_455  S
C980        C981   1.407       .  A
C981        C982   1.400       .  A
C981        N986   1.439       .  S
C982        H987   1.084       .  S
N983       H1003   1.045       .  S
N983       H1004   1.046       .  S
C985        C988   1.407   1_655  A
C985        C992   1.408       .  A
N986       H1001   1.046       .  S
N986       H1002   1.046       .  S
C988        C989   1.409   1_455  A
C988        H993   1.083       .  S
C989        C990   1.415       .  A
C989        N994   1.437   1_655  S
C990        C991   1.412       .  A
C991        C992   1.408       .  A
C991        H995   1.083       .  S
C992        N996   1.438       .  S
N994        H997   1.046       .  S
N994        H998   1.045       .  S
N996        H999   1.046       .  S
N996       H1000   1.046       .  S
C1005      C1006   1.411   1_455  A
C1005      C1010   1.408       .  A
C1006      C1007   1.406       .  A
C1006      N1011   1.434       .  S
C1007      C1008   1.404   1_655  A
C1007      H1012   1.084       .  S
C1008      C1013   1.486   1_454  S
C1008      C1009   1.408       .  A
C1009      C1010   1.406       .  A
C1009      N1014   1.438   1_554  S
C1010      H1015   1.084       .  S
N1011      H1031   1.045       .  S
N1011      H1032   1.046       .  S
C1013      C1016   1.407       .  A
C1013      C1020   1.404       .  A
N1014      H1029   1.046   1_556  S
N1014      H1030   1.046       .  S
C1016      C1017   1.413       .  A
C1016      H1021   1.083   1_655  S
C1017      C1018   1.415       .  A
C1017      N1022   1.437       .  S
C1018      C1019   1.412       .  A
C1019      C1020   1.399       .  A
C1019      H1023   1.083       .  S
C1020      N1024   1.439   1_556  S
N1022      H1025   1.046       .  S
N1022      H1026   1.045   1_655  S
N1024      H1027   1.045   1_554  S
N1024      H1028   1.046   1_655  S
C1033      C1034   1.414       .  A
C1033      C1038   1.408   1_655  A
C1034      C1035   1.421       .  A
C1034      N1039   1.437       .  S
C1035      C1036   1.414       .  A
C1035      H1040   1.083       .  S
C1036      C1041   1.524       .  S
C1036      C1037   1.419   1_655  A
C1037      C1038   1.414       .  A
C1037      N1042   1.438       .  S
C1038      H1043   1.084       .  S
N1039      H1059   1.045       .  S
N1039      H1060   1.046       .  S
C1041      C1044   1.415       .  A
C1041      C1048   1.419       .  A
N1042      H1057   1.046       .  S
N1042      H1058   1.044       .  S
C1044      C1045   1.422   1_655  A
C1044      H1049   1.083   1_655  S
C1045      C1046   1.412       .  A
C1045      N1050   1.436       .  S
C1046      C1047   1.408   1_455  A
C1047      C1048   1.413       .  A
C1047      H1051   1.084       .  S
C1048      N1052   1.438       .  S
N1050      H1053   1.045       .  S
N1050      H1054   1.045       .  S
N1052      H1055   1.046       .  S
N1052      H1056   1.045       .  S
C1061      C1062   1.412       .  A
C1061      C1066   1.404       .  A
C1062      C1063   1.404       .  A
C1062      N1067   1.433       .  S
C1063      C1064   1.403       .  A
C1063      H1068   1.084       .  S
C1064      C1069   1.495       .  S
C1064      C1065   1.416       .  A
C1065      C1066   1.411       .  A
C1065      N1070   1.437       .  S
C1066      H1071   1.083       .  S
N1067      H1087   1.046       .  S
N1067      H1088   1.046       .  S
C1069      C1072   1.407       .  A
C1069      C1076   1.414       .  A
N1070      H1085   1.045       .  S
N1070      H1086   1.045       .  S
C1072      C1073   1.409       .  A
C1072      H1077   1.083       .  S
C1073      C1074   1.406       .  A
C1073      N1078   1.437       .  S
C1074      C1075   1.404       .  A
C1075      C1076   1.409       .  A
C1075      H1079   1.084       .  S
C1076      N1080   1.438       .  S
N1078      H1081   1.046       .  S
N1078      H1082   1.046       .  S
N1080      H1083   1.046       .  S
N1080      H1084   1.046       .  S
C1089      C1090   1.418       .  A
C1089      C1094   1.408       .  A
C1090      C1091   1.406       .  A
C1090      N1095   1.438       .  S
C1091      C1092   1.401       .  A
C1091      H1096   1.084       .  S
C1092      C1097   1.482       .  S
C1092      C1093   1.408       .  A
C1093      C1094   1.405       .  A
C1093      N1098   1.437       .  S
C1094      H1099   1.083       .  S
N1095      H1115   1.045       .  S
N1095      H1116   1.046       .  S
C1097      C1100   1.398       .  A
C1097      C1104   1.413       .  A
N1098      H1113   1.045       .  S
N1098      H1114   1.045       .  S
C1100      C1101   1.393       .  A
C1100      H1105   1.084       .  S
C1101      C1102   1.410       .  A
C1101      N1106   1.434       .  S
C1102      C1103   1.404       .  A
C1103      C1104   1.414       .  A
C1103      H1107   1.083       .  S
C1104      N1108   1.436       .  S
N1106      H1109   1.045       .  S
N1106      H1110   1.046       .  S
N1108      H1111   1.046       .  S
N1108      H1112   1.046       .  S
C1117      C1118   1.414       .  A
C1117      C1122   1.403       .  A
C1118      C1119   1.409       .  A
C1118      N1123   1.437       .  S
C1119      C1120   1.402       .  A
C1119      H1124   1.084       .  S
C1120      C1125   1.488   1_556  S
C1120      C1121   1.411       .  A
C1121      C1122   1.408       .  A
C1121      N1126   1.438   1_556  S
C1122      H1127   1.084       .  S
N1123      H1143   1.046       .  S
N1123      H1144   1.046       .  S
C1125      C1128   1.397       .  A
C1125      C1132   1.414       .  A
N1126      H1141   1.046       .  S
N1126      H1142   1.046       .  S
C1128      C1129   1.402       .  A
C1128      H1133   1.084       .  S
C1129      C1130   1.418       .  A
C1129      N1134   1.439       .  S
C1130      C1131   1.406       .  A
C1131      C1132   1.415       .  A
C1131      H1135   1.083       .  S
C1132      N1136   1.437       .  S
N1134      H1137   1.046       .  S
N1134      H1138   1.046       .  S
N1136      H1139   1.046       .  S
N1136      H1140   1.046       .  S
C1145      C1146   1.413       .  A
C1145      C1150   1.407       .  A
C1146      C1147   1.398       .  A
C1146      N1151   1.439       .  S
C1147      C1148   1.400       .  A
C1147      H1152   1.084       .  S
C1148      C1153   1.458       .  S
C1148      C1149   1.401       .  A
C1149      C1150   1.392       .  A
C1149      N1154   1.438       .  S
C1150      H1155   1.084       .  S
N1151      H1171   1.045       .  S
N1151      H1172   1.046       .  S
C1153      C1156   1.400       .  A
C1153      C1160   1.401       .  A
N1154      H1169   1.046       .  S
N1154      H1170   1.045       .  S
C1156      C1157   1.395       .  A
C1156      H1161   1.084       .  S
C1157      C1158   1.413       .  A
C1157      N1162   1.438       .  S
C1158      C1159   1.409       .  A
C1159      C1160   1.394       .  A
C1159      H1163   1.083       .  S
C1160      N1164   1.438       .  S
N1162      H1165   1.046       .  S
N1162      H1166   1.045       .  S
N1164      H1167   1.045       .  S
N1164      H1168   1.046       .  S
C1173      C1174   1.417       .  A
C1173      C1178   1.406       .  A
C1174      C1175   1.411       .  A
C1174      N1179   1.437       .  S
C1175      C1176   1.403       .  A
C1175      H1180   1.084       .  S
C1176      C1181   1.486       .  S
C1176      C1177   1.411       .  A
C1177      C1178   1.403       .  A
C1177      N1182   1.439       .  S
C1178      H1183   1.083       .  S
N1179      H1199   1.046       .  S
N1179      H1200   1.046       .  S
C1181      C1184   1.405       .  A
C1181      C1188   1.411       .  A
N1182      H1197   1.046       .  S
N1182      H1198   1.046       .  S
C1184      C1185   1.408       .  A
C1184      H1189   1.084       .  S
C1185      C1186   1.408       .  A
C1185      N1190   1.437       .  S
C1186      C1187   1.402       .  A
C1187      C1188   1.406       .  A
C1187      H1191   1.084       .  S
C1188      N1192   1.438       .  S
N1190      H1193   1.046       .  S
N1190      H1194   1.046       .  S
N1192      H1195   1.046       .  S
N1192      H1196   1.046       .  S
C1201      C1202   1.416       .  A
C1201      C1206   1.408       .  A
C1202      C1203   1.409       .  A
C1202      N1207   1.433       .  S
C1203      C1204   1.405       .  A
C1203      H1208   1.084       .  S
C1204      C1209   1.519       .  S
C1204      C1205   1.421       .  A
C1205      C1206   1.425       .  A
C1205      N1210   1.436       .  S
C1206      H1211   1.083       .  S
N1207      H1227   1.045       .  S
N1207      H1228   1.046       .  S
C1209      C1212   1.407       .  A
C1209      C1216   1.427       .  A
N1210      H1225   1.046       .  S
N1210      H1226   1.045       .  S
C1212      C1213   1.414       .  A
C1212      H1217   1.083       .  S
C1213      C1214   1.417       .  A
C1213      N1218   1.438       .  S
C1214      C1215   1.405       .  A
C1215      C1216   1.417       .  A
C1215      H1219   1.084       .  S
C1216      N1220   1.438       .  S
N1218      H1221   1.046       .  S
N1218      H1222   1.045       .  S
N1220      H1223   1.046       .  S
N1220      H1224   1.043       .  S
C1229      C1230   1.417       .  A
C1229      C1234   1.411       .  A
C1230      C1231   1.413       .  A
C1230      N1235   1.437       .  S
C1231      C1232   1.403       .  A
C1231      H1236   1.084       .  S
C1232      C1237   1.500       .  S
C1232      C1233   1.412       .  A
C1233      C1234   1.417       .  A
C1233      N1238   1.437       .  S
C1234      H1239   1.084       .  S
N1235      H1255   1.046       .  S
N1235      H1256   1.046       .  S
C1237      C1240   1.405       .  A
C1237      C1244   1.410       .  A
N1238      H1253   1.046       .  S
N1238      H1254   1.045       .  S
C1240      C1241   1.418       .  A
C1240      H1245   1.083       .  S
C1241      C1242   1.417       .  A
C1241      N1246   1.434       .  S
C1242      C1243   1.410       .  A
C1243      C1244   1.413       .  A
C1243      H1247   1.084       .  S
C1244      N1248   1.438       .  S
N1246      H1249   1.046       .  S
N1246      H1250   1.044       .  S
N1248      H1251   1.045       .  S
N1248      H1252   1.045       .  S
C1257      C1258   1.409   1_455  A
C1257      C1262   1.410       .  A
C1258      C1259   1.407   1_565  A
C1258      N1263   1.430   1_565  S
C1259      C1260   1.408   1_655  A
C1259      H1264   1.084       .  S
C1260      C1265   1.498   1_455  S
C1260      C1261   1.411   1_545  A
C1261      C1262   1.411       .  A
C1261      N1266   1.438       .  S
C1262      H1267   1.084       .  S
N1263      H1283   1.046   1_545  S
N1263      H1284   1.046       .  S
C1265      C1268   1.412   1_545  A
C1265      C1272   1.408       .  A
N1266      H1281   1.046       .  S
N1266      H1282   1.046   1_565  S
C1268      C1269   1.417   1_565  A
C1268      H1273   1.083       .  S
C1269      C1270   1.412       .  A
C1269      N1274   1.436   1_545  S
C1270      C1271   1.409       .  A
C1271      C1272   1.402       .  A
C1271      H1275   1.084       .  S
C1272      N1276   1.439       .  S
N1274      H1277   1.046       .  S
N1274      H1278   1.045       .  S
N1276      H1279   1.046       .  S
N1276      H1280   1.046   1_655  S
C1285      C1286   1.412       .  A
C1285      C1290   1.401       .  A
C1286      C1287   1.405       .  A
C1286      N1291   1.439       .  S
C1287      C1288   1.402       .  A
C1287      H1292   1.084       .  S
C1288      C1293   1.485       .  S
C1288      C1289   1.412       .  A
C1289      C1290   1.408       .  A
C1289      N1294   1.437   1_655  S
C1290      H1295   1.084       .  S
N1291      H1311   1.046       .  S
N1291      H1312   1.046       .  S
C1293      C1296   1.399   1_655  A
C1293      C1300   1.407       .  A
N1294      H1309   1.046       .  S
N1294      H1310   1.046       .  S
C1296      C1297   1.404       .  A
C1296      H1301   1.084       .  S
C1297      C1298   1.420       .  A
C1297      N1302   1.438       .  S
C1298      C1299   1.413       .  A
C1299      C1300   1.411   1_455  A
C1299      H1303   1.083       .  S
C1300      N1304   1.437       .  S
N1302      H1305   1.046       .  S
N1302      H1306   1.046       .  S
N1304      H1307   1.046       .  S
N1304      H1308   1.046       .  S
C1313      C1314   1.400       .  A
C1313      C1318   1.401       .  A
C1314      C1315   1.390       .  A
C1314      N1319   1.439       .  S
C1315      C1316   1.406       .  A
C1315      H1320   1.084       .  S
C1316      C1321   1.467       .  S
C1316      C1317   1.409       .  A
C1317      C1318   1.400       .  A
C1317      N1322   1.438       .  S
C1318      H1323   1.084       .  S
N1319      H1339   1.046       .  S
N1319      H1340   1.046       .  S
C1321      C1324   1.401       .  A
C1321      C1328   1.408       .  A
N1322      H1337   1.046       .  S
N1322      H1338   1.045       .  S
C1324      C1325   1.395       .  A
C1324      H1329   1.083   1_655  S
C1325      C1326   1.411       .  A
C1325      N1330   1.439   1_655  S
C1326      C1327   1.400       .  A
C1327      C1328   1.397       .  A
C1327      H1331   1.084       .  S
C1328      N1332   1.437       .  S
N1330      H1333   1.046       .  S
N1330      H1334   1.046       .  S
N1332      H1335   1.046       .  S
N1332      H1336   1.045       .  S
C1341      C1342   1.423       .  A
C1341      C1346   1.411       .  A
C1342      C1343   1.406       .  A
C1342      N1347   1.438       .  S
C1343      C1344   1.399       .  A
C1343      H1348   1.084       .  S
C1344      C1349   1.496       .  S
C1344      C1345   1.412       .  A
C1345      C1346   1.416       .  A
C1345      N1350   1.437       .  S
C1346      H1351   1.082       .  S
N1347      H1367   1.046       .  S
N1347      H1368   1.046       .  S
C1349      C1352   1.403       .  A
C1349      C1356   1.412       .  A
N1350      H1365   1.046       .  S
N1350      H1366   1.046       .  S
C1352      C1353   1.414       .  A
C1352      H1357   1.084       .  S
C1353      C1354   1.419       .  A
C1353      N1358   1.438       .  S
C1354      C1355   1.408       .  A
C1355      C1356   1.410       .  A
C1355      H1359   1.083       .  S
C1356      N1360   1.438       .  S
N1358      H1361   1.046       .  S
N1358      H1362   1.045       .  S
N1360      H1363   1.046       .  S
N1360      H1364   1.046       .  S
C1369      C1370   1.418       .  A
C1369      C1374   1.405       .  A
C1370      C1371   1.404       .  A
C1370      N1375   1.433       .  S
C1371      C1372   1.398       .  A
C1371      H1376   1.084       .  S
C1372      C1377   1.484   1_655  S
C1372      C1373   1.412   1_655  A
C1373      C1374   1.411   1_455  A
C1373      N1378   1.437   1_545  S
C1374      H1379   1.083       .  S
N1375      H1395   1.046       .  S
N1375      H1396   1.046       .  S
C1377      C1380   1.396   1_554  A
C1377      C1384   1.415   1_454  A
N1378      H1393   1.046       .  S
N1378      H1394   1.046   1_455  S
C1380      C1381   1.398       .  A
C1380      H1385   1.084   1_556  S
C1381      C1382   1.413       .  A
C1381      N1386   1.433       .  S
C1382      C1383   1.404       .  A
C1383      C1384   1.416   1_455  A
C1383      H1387   1.083   1_445  S
C1384      N1388   1.437       .  S
N1386      H1389   1.045       .  S
N1386      H1390   1.046       .  S
N1388      H1391   1.046       .  S
N1388      H1392   1.046   1_546  S
C1397      C1398   1.412   1_545  A
C1397      C1402   1.405       .  A
C1398      C1399   1.421       .  A
C1398      N1403   1.436       .  S
C1399      C1400   1.412   1_565  A
C1399      H1404   1.082       .  S
C1400      C1405   1.520   1_455  S
C1400      C1401   1.419       .  A
C1401      C1402   1.415       .  A
C1401      N1406   1.438   1_455  S
C1402      H1407   1.084       .  S
N1403      H1423   1.045       .  S
N1403      H1424   1.045       .  S
C1405      C1408   1.410       .  A
C1405      C1412   1.422   1_655  A
N1406      H1421   1.046       .  S
N1406      H1422   1.046   1_655  S
C1408      C1409   1.414       .  A
C1408      H1413   1.084       .  S
C1409      C1410   1.421       .  A
C1409      N1414   1.438       .  S
C1410      C1411   1.406   1_655  A
C1411      C1412   1.412       .  A
C1411      H1415   1.084       .  S
C1412      N1416   1.432   1_545  S
N1414      H1417   1.046       .  S
N1414      H1418   1.044       .  S
N1416      H1419   1.043       .  S
N1416      H1420   1.045   1_565  S
C1425      C1426   1.420       .  A
C1425      C1430   1.407       .  A
C1426      C1427   1.408       .  A
C1426      N1431   1.438       .  S
C1427      C1428   1.400       .  A
C1427      H1432   1.084       .  S
C1428      C1433   1.475       .  S
C1428      C1429   1.406       .  A
C1429      C1430   1.400       .  A
C1429      N1434   1.439       .  S
C1430      H1435   1.083       .  S
N1431      H1451   1.046       .  S
N1431      H1452   1.046       .  S
C1433      C1436   1.402       .  A
C1433      C1440   1.409   1_455  A
N1434      H1449   1.046       .  S
N1434      H1450   1.046       .  S
C1436      C1437   1.405       .  A
C1436      H1441   1.084       .  S
C1437      C1438   1.408   1_455  A
C1437      N1442   1.438       .  S
C1438      C1439   1.401       .  A
C1439      C1440   1.403       .  A
C1439      H1443   1.084       .  S
C1440      N1444   1.438       .  S
N1442      H1445   1.046       .  S
N1442      H1446   1.045       .  S
N1444      H1447   1.046       .  S
N1444      H1448   1.046       .  S
C1453      C1454   1.416       .  A
C1453      C1458   1.410       .  A
C1454      C1455   1.409       .  A
C1454      N1459   1.438       .  S
C1455      C1456   1.403       .  A
C1455      H1460   1.084       .  S
C1456      C1461   1.500       .  S
C1456      C1457   1.413       .  A
C1457      C1458   1.417       .  A
C1457      N1462   1.437       .  S
C1458      H1463   1.083       .  S
N1459      H1479   1.046       .  S
N1459      H1480   1.046       .  S
C1461      C1464   1.405       .  A
C1461      C1468   1.409       .  A
N1462      H1477   1.045       .  S
N1462      H1478   1.046       .  S
C1464      C1465   1.418       .  A
C1464      H1469   1.083       .  S
C1465      C1466   1.421       .  A
C1465      N1470   1.437       .  S
C1466      C1467   1.411       .  A
C1467      C1468   1.409       .  A
C1467      H1471   1.083       .  S
C1468      N1472   1.438       .  S
N1470      H1473   1.046       .  S
N1470      H1474   1.045       .  S
N1472      H1475   1.045       .  S
N1472      H1476   1.046       .  S
C1481      C1482   1.421       .  A
C1481      C1486   1.406       .  A
C1482      C1483   1.407       .  A
C1482      N1487   1.438       .  S
C1483      C1484   1.400       .  A
C1483      H1488   1.084       .  S
C1484      C1489   1.496       .  S
C1484      C1485   1.415       .  A
C1485      C1486   1.413       .  A
C1485      N1490   1.437   1_545  S
C1486      H1491   1.083       .  S
N1487      H1507   1.046       .  S
N1487      H1508   1.046       .  S
C1489      C1492   1.400       .  A
C1489      C1496   1.417       .  A
N1490      H1505   1.046       .  S
N1490      H1506   1.045       .  S
C1492      C1493   1.406       .  A
C1492      H1497   1.084       .  S
C1493      C1494   1.419       .  A
C1493      N1498   1.439       .  S
C1494      C1495   1.402   1_545  A
C1495      C1496   1.414   1_565  A
C1495      H1499   1.083       .  S
C1496      N1500   1.437       .  S
N1498      H1501   1.046       .  S
N1498      H1502   1.046       .  S
N1500      H1503   1.046   1_545  S
N1500      H1504   1.046   1_545  S
C1509      C1510   1.421       .  A
C1509      C1514   1.407       .  A
C1510      C1511   1.408       .  A
C1510      N1515   1.437       .  S
C1511      C1512   1.398       .  A
C1511      H1516   1.084       .  S
C1512      C1517   1.479       .  S
C1512      C1513   1.408       .  A
C1513      C1514   1.405       .  A
C1513      N1518   1.438       .  S
C1514      H1519   1.083       .  S
N1515      H1535   1.045       .  S
N1515      H1536   1.046       .  S
C1517      C1520   1.404       .  A
C1517      C1524   1.409   1_545  A
N1518      H1533   1.046       .  S
N1518      H1534   1.045       .  S
C1520      C1521   1.407       .  A
C1520      H1525   1.084       .  S
C1521      C1522   1.407   1_545  A
C1521      N1526   1.432       .  S
C1522      C1523   1.404       .  A
C1523      C1524   1.403       .  A
C1523      H1527   1.084       .  S
C1524      N1528   1.439       .  S
N1526      H1529   1.045       .  S
N1526      H1530   1.046       .  S
N1528      H1531   1.046       .  S
N1528      H1532   1.046       .  S
C1537      C1538   1.417       .  A
C1537      C1542   1.405   1_565  A
C1538      C1539   1.392       .  A
C1538      N1543   1.432       .  S
C1539      C1540   1.392       .  A
C1539      H1544   1.085       .  S
C1540      C1545   1.452       .  S
C1540      C1541   1.406   1_565  A
C1541      C1542   1.396       .  A
C1541      N1546   1.439       .  S
C1542      H1547   1.083       .  S
N1543      H1563   1.046       .  S
N1543      H1564   1.046       .  S
C1545      C1548   1.399       .  A
C1545      C1552   1.401       .  A
N1546      H1561   1.046       .  S
N1546      H1562   1.044       .  S
C1548      C1549   1.392       .  A
C1548      H1553   1.085       .  S
C1549      C1550   1.408       .  A
C1549      N1554   1.439       .  S
C1550      C1551   1.407       .  A
C1551      C1552   1.398       .  A
C1551      H1555   1.084       .  S
C1552      N1556   1.438       .  S
N1554      H1557   1.046       .  S
N1554      H1558   1.045       .  S
N1556      H1559   1.045       .  S
N1556      H1560   1.044       .  S
C1565      C1566   1.416       .  A
C1565      C1570   1.411       .  A
C1566      C1567   1.404       .  A
C1566      N1571   1.432       .  S
C1567      C1568   1.400       .  A
C1567      H1572   1.084       .  S
C1568      C1573   1.483       .  S
C1568      C1569   1.407       .  A
C1569      C1570   1.408       .  A
C1569      N1574   1.437       .  S
C1570      H1575   1.083       .  S
N1571      H1591   1.046       .  S
N1571      H1592   1.046       .  S
C1573      C1576   1.400       .  A
C1573      C1580   1.410       .  A
N1574      H1589   1.046       .  S
N1574      H1590   1.046       .  S
C1576      C1577   1.403       .  A
C1576      H1581   1.084       .  S
C1577      C1578   1.413       .  A
C1577      N1582   1.439       .  S
C1578      C1579   1.405       .  A
C1579      C1580   1.412       .  A
C1579      H1583   1.084       .  S
C1580      N1584   1.437       .  S
N1582      H1585   1.046       .  S
N1582      H1586   1.046       .  S
N1584      H1587   1.046       .  S
N1584      H1588   1.046       .  S
C1593      C1594   1.418       .  A
C1593      C1598   1.408       .  A
C1594      C1595   1.409       .  A
C1594      N1599   1.438       .  S
C1595      C1596   1.402       .  A
C1595      H1600   1.084       .  S
C1596      C1601   1.500       .  S
C1596      C1597   1.413       .  A
C1597      C1598   1.418       .  A
C1597      N1602   1.436       .  S
C1598      H1603   1.084       .  S
N1599      H1619   1.045       .  S
N1599      H1620   1.046       .  S
C1601      C1604   1.405       .  A
C1601      C1608   1.409       .  A
N1602      H1617   1.046       .  S
N1602      H1618   1.046       .  S
C1604      C1605   1.419       .  A
C1604      H1609   1.083       .  S
C1605      C1606   1.422       .  A
C1605      N1610   1.437       .  S
C1606      C1607   1.411       .  A
C1607      C1608   1.410       .  A
C1607      H1611   1.083       .  S
C1608      N1612   1.438       .  S
N1610      H1613   1.046       .  S
N1610      H1614   1.046       .  S
N1612      H1615   1.045       .  S
N1612      H1616   1.046       .  S
C1621      C1622   1.420       .  A
C1621      C1626   1.415       .  A
C1622      C1623   1.416       .  A
C1622      N1627   1.437   1_545  S
C1623      C1624   1.405       .  A
C1623      H1628   1.084   1_545  S
C1624      C1629   1.493   1_556  S
C1624      C1625   1.408       .  A
C1625      C1626   1.409       .  A
C1625      N1630   1.439   1_556  S
C1626      H1631   1.083       .  S
N1627      H1647   1.042   1_565  S
N1627      H1648   1.046       .  S
C1629      C1632   1.400   1_545  A
C1629      C1636   1.416       .  A
N1630      H1645   1.045       .  S
N1630      H1646   1.044       .  S
C1632      C1633   1.407       .  A
C1632      H1637   1.084       .  S
C1633      C1634   1.415       .  A
C1633      N1638   1.439       .  S
C1634      C1635   1.404   1_565  A
C1635      C1636   1.416       .  A
C1635      H1639   1.083       .  S
C1636      N1640   1.438       .  S
N1638      H1641   1.046       .  S
N1638      H1642   1.046       .  S
N1640      H1643   1.046       .  S
N1640      H1644   1.043       .  S
C1649      C1650   1.410       .  A
C1649      C1654   1.402   1_565  A
C1650      C1651   1.407       .  A
C1650      N1655   1.438       .  S
C1651      C1652   1.401   1_565  A
C1651      H1656   1.084       .  S
C1652      C1657   1.482       .  S
C1652      C1653   1.410       .  A
C1653      C1654   1.408       .  A
C1653      N1658   1.437       .  S
C1654      H1659   1.084       .  S
N1655      H1675   1.045       .  S
N1655      H1676   1.046       .  S
C1657      C1660   1.400       .  A
C1657      C1664   1.406       .  A
N1658      H1673   1.046       .  S
N1658      H1674   1.045       .  S
C1660      C1661   1.403       .  A
C1660      H1665   1.084       .  S
C1661      C1662   1.416       .  A
C1661      N1666   1.432       .  S
C1662      C1663   1.412       .  A
C1663      C1664   1.410       .  A
C1663      H1667   1.082       .  S
C1664      N1668   1.437       .  S
N1666      H1669   1.045       .  S
N1666      H1670   1.046       .  S
N1668      H1671   1.046       .  S
N1668      H1672   1.045       .  S
C1677      C1678   1.408       .  A
C1677      C1682   1.407       .  A
C1678      C1679   1.395       .  A
C1678      N1683   1.439       .  S
C1679      C1680   1.401       .  A
C1679      H1684   1.085       .  S
C1680      C1685   1.455       .  S
C1680      C1681   1.401       .  A
C1681      C1682   1.396       .  A
C1681      N1686   1.438       .  S
C1682      H1687   1.084       .  S
N1683      H1703   1.045       .  S
N1683      H1704   1.046       .  S
C1685      C1688   1.397       .  A
C1685      C1692   1.403       .  A
N1686      H1701   1.045       .  S
N1686      H1702   1.044       .  S
C1688      C1689   1.400       .  A
C1688      H1693   1.084       .  S
C1689      C1690   1.420       .  A
C1689      N1694   1.439       .  S
C1690      C1691   1.399       .  A
C1691      C1692   1.387       .  A
C1691      H1695   1.078       .  S
C1692      N1696   1.434       .  S
N1694      H1697   1.046       .  S
N1694      H1698   1.046       .  S
N1696      H1699   1.046       .  S
N1696      H1700   1.045       .  S
C1705      C1706   1.422       .  A
C1705      C1710   1.407       .  A
C1706      C1707   1.409       .  A
C1706      N1711   1.438       .  S
C1707      C1708   1.403       .  A
C1707      H1712   1.084       .  S
C1708      C1713   1.496       .  S
C1708      C1709   1.413       .  A
C1709      C1710   1.409       .  A
C1709      N1714   1.438       .  S
C1710      H1715   1.083       .  S
N1711      H1731   1.046       .  S
N1711      H1732   1.046       .  S
C1713      C1716   1.408       .  A
C1713      C1720   1.413       .  A
N1714      H1729   1.045       .  S
N1714      H1730   1.046       .  S
C1716      C1717   1.411       .  A
C1716      H1721   1.083       .  S
C1717      C1718   1.408       .  A
C1717      N1722   1.437       .  S
C1718      C1719   1.404       .  A
C1719      C1720   1.405       .  A
C1719      H1723   1.085       .  S
C1720      N1724   1.438       .  S
N1722      H1725   1.046       .  S
N1722      H1726   1.045       .  S
N1724      H1727   1.046       .  S
N1724      H1728   1.045       .  S
C1733      C1734   1.419       .  A
C1733      C1738   1.408   1_545  A
C1734      C1735   1.418       .  A
C1734      N1739   1.438       .  S
C1735      C1736   1.408       .  A
C1735      H1740   1.083       .  S
C1736      C1741   1.523       .  S
C1736      C1737   1.419   1_545  A
C1737      C1738   1.424       .  A
C1737      N1742   1.436       .  S
C1738      H1743   1.083       .  S
N1739      H1759   1.045       .  S
N1739      H1760   1.046       .  S
C1741      C1744   1.407       .  A
C1741      C1748   1.420       .  A
N1742      H1757   1.045       .  S
N1742      H1758   1.046       .  S
C1744      C1745   1.413       .  A
C1744      H1749   1.082   1_545  S
C1745      C1746   1.413       .  A
C1745      N1750   1.431       .  S
C1746      C1747   1.410       .  A
C1747      C1748   1.425       .  A
C1747      H1751   1.083       .  S
C1748      N1752   1.436       .  S
N1750      H1753   1.046       .  S
N1750      H1754   1.045   1_545  S
N1752      H1755   1.046       .  S
N1752      H1756   1.046       .  S
