geometry optimzed in LAMMPS
_audit_creation_date              2020-12-01 
_audit_creation_method            'lammps2cif' 
_symmetry_space_group_name_H-M    'P1' 
_symmetry_Int_Tables_number       1 
_symmetry_cell_setting            triclinic 
loop_ 
_symmetry_equiv_pos_as_xyz 
  x,y,z 
_cell_length_a                    37.76509795 
_cell_length_b                    37.65991843427571 
_cell_length_c                    41.4330284862185 
_cell_angle_alpha                 89.34071616090363 
_cell_angle_beta                  89.9998186388551 
_cell_angle_gamma                 90.07357981215792 
loop_ 
_atom_site_label 
_atom_site_type_symbol 
_atom_site_fract_x 
_atom_site_fract_y 
_atom_site_fract_z 
_atom_site_charge 
Fe1        Fe  0.91189140  0.11351675  0.76892344     1.65800
Fe2        Fe  0.87388223  0.19136738  0.75864149     1.73200
Fe3        Fe  0.83623150  0.13392564  0.80914673     1.54400
O4          O  0.82881294  0.08180401  0.78920205    -0.82500
O5          O  0.88557045  0.21311489  0.80321423    -0.80800
O6          O  0.87889419  0.07060802  0.76214874    -0.85000
O7          O  0.92155801  0.09926964  0.81582452    -0.79900
O8          O  0.79608803  0.15545333  0.77669192    -0.81600
O9          O  0.92368134  0.18801156  0.74245944    -0.84400
C10         C  0.90573652  0.10311878  0.84248364     0.96400
C11         C  0.84812130  0.06147393  0.77153229     1.03800
O12         O  0.87333275  0.14511339  0.77909465    -1.13400
O13         O  0.86184137  0.16704800  0.71581302    -0.75800
O14         O  0.90446401  0.12564776  0.71996028    -0.79300
O15         O  0.87366064  0.11448213  0.84400632    -0.80000
C16         C  0.88257311  0.14428648  0.70320775     0.95300
O17         O  0.94862739  0.15383253  0.77741699    -0.77900
O18         O  0.82444036  0.20536875  0.76925399    -0.83100
C19         C  0.86506007  0.21047937  0.82778738     0.97900
C20         C  0.79695886  0.18771079  0.76605379     1.03800
O21         O  0.84291464  0.18454343  0.83112936    -0.78800
C22         C  0.94841419  0.18234453  0.76124988     1.02100
Fe23       Fe  0.58140470  0.36340120  0.74008583     1.65800
Fe24       Fe  0.63672587  0.29534652  0.75454155     1.73200
Fe25       Fe  0.65285722  0.34989433  0.69214968     1.54400
O26         O  0.61184726  0.37654492  0.66574032    -0.82500
O27         O  0.68515509  0.31660407  0.75869603    -0.80800
O28         O  0.56379744  0.36357540  0.69371310    -0.85000
O29         O  0.61064342  0.41061414  0.73470933    -0.79900
O30         O  0.63919834  0.30333391  0.67003655    -0.81600
O31         O  0.62638994  0.31864607  0.79763651    -0.84400
C32         C  0.64290614  0.41915030  0.72863425     0.96400
C33         C  0.57812854  0.37452797  0.66807492     1.03800
O34         O  0.62274133  0.33599566  0.72886774    -1.13400
O35         O  0.58856370  0.27337860  0.75438535    -0.75800
O36         O  0.55080623  0.31815289  0.74629606    -0.79300
O37         O  0.66515664  0.39771271  0.71563336    -0.80000
C38         C  0.55769955  0.28542159  0.75119648     0.95300
O39         O  0.59140163  0.36484464  0.78874881    -0.77900
O40         O  0.64680074  0.26594773  0.71207532    -0.83100
C41         C  0.70422610  0.30639632  0.73639014     0.97900
C42         C  0.64123828  0.27196792  0.68195856     1.03800
O43         O  0.69856548  0.32040920  0.70868778    -0.78800
C44         C  0.60760447  0.34393052  0.80764913     1.02100
Fe45       Fe  0.62260743  0.32857318  0.01008973     1.65800
Fe46       Fe  0.54634229  0.37092030  0.99854297     1.73200
Fe47       Fe  0.59974088  0.39868358  0.05693633     1.54400
O48         O  0.62361866  0.35782491  0.08549377    -0.82500
O49         O  0.56146194  0.42080305  0.98676367    -0.80800
O50         O  0.61998410  0.30858701  0.05605792    -0.85000
O51         O  0.66766554  0.35859579  0.02013296    -0.79900
O52         O  0.55198596  0.38601040  0.08063110    -0.81600
O53         O  0.56805875  0.35568064  0.95551014    -0.84400
C54         C  0.67360200  0.39164630  0.02344017     0.96400
C55         C  0.62207921  0.32384926  0.08314975     1.03800
O56         O  0.58969984  0.36585890  0.02222049    -1.13400
O57         O  0.53299534  0.32089057  0.01026859    -0.75800
O58         O  0.58223461  0.29357375  0.99631045    -0.79300
O59         O  0.64943911  0.41266130  0.03426954    -0.80000
C60         C  0.54873477  0.29412070  0.99950461     0.95300
O61         O  0.62564588  0.34670577  0.96347413    -0.77900
O62         O  0.51598453  0.38613269  0.03813685    -0.83100
C63         C  0.55418341  0.44346886  0.00741930     0.97900
C64         C  0.52085248  0.38589797  0.06847073     1.03800
O65         O  0.57023848  0.44168032  0.03474161    -0.78800
C66         C  0.59925616  0.35166062  0.94515339     1.02100
Fe67       Fe  0.36785485  0.65399026  0.98704475     1.65800
Fe68       Fe  0.43656584  0.60010182  0.00303785     1.73200
Fe69       Fe  0.38270945  0.58104754  0.94170735     1.54400
O70         O  0.33568687  0.56817475  0.96670536    -0.82500
O71         O  0.46614261  0.58914471  0.96046168    -0.80800
O72         O  0.32125267  0.62302067  0.98393823    -0.85000
O73         O  0.36674759  0.67006268  0.94016915    -0.79900
O74         O  0.41261428  0.53620440  0.95943879    -0.81600
O75         O  0.45779643  0.64891005  0.00066515    -0.84400
C76         C  0.35596851  0.65457617  0.91533755     0.96400
C77         C  0.31385131  0.59004023  0.97967458     1.03800
O78         O  0.39597732  0.61269991  0.97713186    -1.13400
O79         O  0.41307807  0.61181330  0.04645585    -0.75800
O80         O  0.36643427  0.64575699  0.03591626    -0.79300
O81         O  0.35500694  0.62066621  0.91419127    -0.80000
C82         C  0.38717941  0.63058706  0.05552022     0.95300
O83         O  0.41292783  0.68607152  0.99115149    -0.77900
O84         O  0.41586362  0.55111547  0.00900604    -0.83100
C85         C  0.46031381  0.59401813  0.93015445     0.97900
C86         C  0.42563314  0.53080185  0.98744021     1.03800
O87         O  0.42898380  0.59512952  0.91844650    -0.78800
C88         C  0.44573663  0.67975721  0.99615956     1.02100
Fe89       Fe  0.07793340  0.86049359  0.25201849     1.65800
Fe90       Fe  0.13119529  0.79069883  0.26035476     1.73200
Fe91       Fe  0.14723658  0.85038953  0.20212328     1.54400
O92         O  0.10296425  0.87384420  0.17796223    -0.82500
O93         O  0.17865134  0.81317680  0.26769604    -0.80800
O94         O  0.05592134  0.85704564  0.20696723    -0.85000
O95         O  0.10074297  0.90905941  0.23931964    -0.79900
O96         O  0.13724128  0.80367265  0.17636070    -0.81600
O97         O  0.11743270  0.80947249  0.30534325    -0.84400
C98         C  0.13285223  0.91911534  0.23960597     0.96400
C99         C  0.06957422  0.86775233  0.18053932     1.03800
O100        O  0.11786061  0.83320284  0.23751220    -1.13400
O101        O  0.08345429  0.76957591  0.25476987    -0.75800
O102        O  0.05031433  0.81555128  0.26736389    -0.79300
O103        O  0.15713816  0.89833292  0.22868049    -0.80000
C104        C  0.05547924  0.78225916  0.26612861     0.95300
O105        O  0.09820799  0.86466112  0.29794810    -0.77900
O106        O  0.14448300  0.76459426  0.21694026    -0.83100
C107        C  0.19893397  0.80619442  0.24516289     0.97900
C108        C  0.14050795  0.77167770  0.18684150     1.03800
O109        O  0.19417129  0.82317539  0.21860754    -0.78800
C110        C  0.10735805  0.83906365  0.31627416     1.02100
Fe111      Fe  0.41302135  0.62298958  0.25676598     1.65800
Fe112      Fe  0.36976731  0.69864720  0.24853356     1.73200
Fe113      Fe  0.33990760  0.63894954  0.30241870     1.54400
O114        O  0.33392531  0.58686984  0.28373455    -0.82500
O115        O  0.38148989  0.72255317  0.29227505    -0.80800
O116        O  0.38179669  0.57833640  0.25272985    -0.85000
O117        O  0.42659683  0.61002053  0.30293947    -0.79900
O118        O  0.29572825  0.65721408  0.27360948    -0.81600
O119        O  0.41918654  0.70050214  0.23078575    -0.84400
C120        C  0.41254379  0.61085241  0.33060836     0.96400
C121        C  0.35295048  0.56747634  0.26520820     1.03800
O122        O  0.37371550  0.65253621  0.26944544    -1.13400
O123        O  0.35764281  0.67342233  0.20602241    -0.75800
O124        O  0.40231993  0.63413602  0.20841272    -0.79300
O125        O  0.38032230  0.62067270  0.33445989    -0.80000
C126        C  0.37876396  0.65155240  0.19269339     0.95300
O127        O  0.44848070  0.66466262  0.26202029    -0.77900
O128        O  0.31973228  0.70823343  0.26005489    -0.83100
C129        C  0.36424649  0.71769731  0.31866329     0.97900
C130        C  0.29323941  0.68868532  0.26161428     1.03800
O131        O  0.34545356  0.68962453  0.32379238    -0.78800
C132        C  0.44620636  0.69355484  0.24653526     1.02100
Fe133      Fe  0.86887239  0.15707975  0.49884767     1.65800
Fe134      Fe  0.94569506  0.11455957  0.50732751     1.73200
Fe135      Fe  0.88822743  0.08761460  0.45103275     1.54400
O136        O  0.84103709  0.07274658  0.47526985    -0.82500
O137        O  0.97334632  0.10168798  0.46526048    -0.80800
O138        O  0.82399719  0.12678957  0.49076622    -0.85000
O139        O  0.86873487  0.17684689  0.45295547    -0.79900
O140        O  0.91793661  0.04417625  0.47125678    -0.81600
O141        O  0.95884428  0.16473385  0.49691255    -0.84400
C142        C  0.86001656  0.16177319  0.42701332     0.96400
C143        C  0.81757620  0.09409605  0.48621219     1.03800
O144        O  0.90079224  0.11965501  0.48569826    -1.13400
O145        O  0.92485794  0.12856215  0.55172335    -0.75800
O146        O  0.86797244  0.13907580  0.54559338    -0.79300
O147        O  0.86048605  0.12785047  0.42464809    -0.80000
C148        C  0.89440436  0.13361358  0.56368409     0.95300
O149        O  0.90904553  0.19316464  0.50911432    -0.77900
O150        O  0.93417605  0.06368772  0.51878182    -0.83100
C151        C  0.96581475  0.10420223  0.43535380     0.97900
C152        C  0.93542322  0.04013933  0.49759637     1.03800
O153        O  0.93379366  0.10214046  0.42558879    -0.78800
C154        C  0.94198667  0.19256219  0.50313742     1.02100
Fe155      Fe  0.11611644  0.83089201  0.51788211     1.65800
Fe156      Fe  0.04469162  0.88384001  0.50966355     1.73200
Fe157      Fe  0.10560618  0.90285228  0.56571209     1.54400
O158        O  0.12932103  0.86077626  0.59273606    -0.82500
O159        O  0.06609407  0.93103698  0.49888786    -0.80800
O160        O  0.11995416  0.81194203  0.56421027    -0.85000
O161        O  0.16460750  0.85772800  0.52091810    -0.79900
O162        O  0.05923173  0.89183868  0.59175503    -0.81600
O163        O  0.06077548  0.86835460  0.46432770    -0.84400
C164        C  0.17505341  0.88938008  0.52640270     0.96400
C165        C  0.12782686  0.82692987  0.59040022     1.03800
O166        O  0.08887334  0.87185324  0.53132066    -1.13400
O167        O  0.02395988  0.83632204  0.51895363    -0.75800
O168        O  0.07036002  0.80016881  0.51310447    -0.79300
O169        O  0.15463288  0.91226234  0.54024596    -0.80000
C170        C  0.03726899  0.80592709  0.51655498     0.95300
O171        O  0.11461477  0.84533919  0.47012927    -0.77900
O172        O  0.01973835  0.89990242  0.55278828    -0.83100
C173        C  0.06183557  0.95390901  0.51995231     0.97900
C174        C  0.02705613  0.89426180  0.58250093     1.03800
O175        O  0.07841021  0.94956034  0.54674142    -0.78800
C176        C  0.08934048  0.85644092  0.45278175     1.02100
Fe177      Fe  0.08628035  0.36040901  0.75838211     1.65800
Fe178      Fe  0.13273829  0.28696748  0.75030057     1.73200
Fe179      Fe  0.15739248  0.34580554  0.80683256     1.54400
O180        O  0.16183838  0.39804246  0.78808736    -0.82500
O181        O  0.12282869  0.26043432  0.79361660    -0.80800
O182        O  0.11781005  0.40508646  0.75202736    -0.85000
O183        O  0.07171604  0.37541463  0.80352398    -0.79900
O184        O  0.20379761  0.33176384  0.78057631    -0.81600
O185        O  0.08226735  0.28209594  0.73487186    -0.84400
C186        C  0.08332915  0.37201726  0.83188912     0.96400
C187        C  0.14507701  0.41654595  0.76684231     1.03800
O188        O  0.12630149  0.33196261  0.77194108    -1.13400
O189        O  0.14270469  0.31410953  0.70800138    -0.75800
O190        O  0.09445386  0.34797231  0.71036783    -0.79300
O191        O  0.11475684  0.36073760  0.83707432    -0.80000
C192        C  0.11938006  0.33363781  0.69451988     0.95300
O193        O  0.05341595  0.31745454  0.76647980    -0.77900
O194        O  0.18424893  0.28204442  0.75912247    -0.83100
C195        C  0.13654449  0.26579812  0.82136158     0.97900
C196        C  0.20902304  0.30283248  0.76548052     1.03800
O197        O  0.15349099  0.29443835  0.82803374    -0.78800
C198        C  0.05603889  0.28825231  0.75203032     1.02100
Fe199      Fe  0.40577127  0.11709502  0.74343320     1.65800
Fe200      Fe  0.36502517  0.19445150  0.74998666     1.73200
Fe201      Fe  0.33756949  0.13750355  0.69406878     1.54400
O202        O  0.37805160  0.11049646  0.66805267    -0.82500
O203        O  0.31580224  0.17878370  0.76145751    -0.80800
O204        O  0.42675419  0.11682526  0.69805870    -0.85000
O205        O  0.37563494  0.07195185  0.73488991    -0.79900
O206        O  0.35255926  0.18265476  0.66810040    -0.81600
O207        O  0.38189355  0.17502117  0.79474179    -0.84400
C208        C  0.34264406  0.06640453  0.73136140     0.96400
C209        C  0.41189820  0.11206381  0.67096563     1.03800
O210        O  0.36998578  0.14976552  0.72856887    -1.13400
O211        O  0.41481997  0.20826800  0.73910940    -0.75800
O212        O  0.44057576  0.15792724  0.75521090    -0.79300
O213        O  0.32204240  0.09026017  0.71928295    -0.80000
C214        C  0.44122726  0.19120396  0.74953865     0.95300
O215        O  0.38606032  0.11707071  0.78937255    -0.77900
O216        O  0.34912223  0.22182803  0.70756887    -0.83100
C217        C  0.29291840  0.18544020  0.74045186     0.97900
C218        C  0.35119145  0.21467724  0.67755971     1.03800
O219        O  0.29474710  0.16886766  0.71359608    -0.78800
C220        C  0.38595778  0.14425983  0.80698670     1.02100
Fe221      Fe  0.86656415  0.65357394  0.52220066     1.65800
Fe222      Fe  0.94368337  0.61142162  0.51526049     1.73200
Fe223      Fe  0.88307913  0.58058845  0.56767246     1.54400
O224        O  0.85235926  0.61829353  0.59446518    -0.82500
O225        O  0.92944218  0.56260062  0.50089439    -0.80800
O226        O  0.86046297  0.66962627  0.56847690    -0.85000
O227        O  0.82166094  0.62143140  0.52392123    -0.79900
O228        O  0.92534264  0.59407132  0.59668744    -0.81600
O229        O  0.92781341  0.62955584  0.47013069    -0.84400
C230        C  0.81599623  0.58813566  0.52634085     0.96400
C231        C  0.85134039  0.65244867  0.59350327     1.03800
O232        O  0.89785208  0.61589092  0.53561640    -1.13400
O233        O  0.95814141  0.66032914  0.52741914    -0.75800
O234        O  0.90815374  0.69015250  0.51909650    -0.79300
O235        O  0.83871060  0.56677024  0.53903312    -0.80000
C236        C  0.94140434  0.68903853  0.52446503     0.95300
O237        O  0.87047881  0.63955248  0.47487087    -0.77900
O238        O  0.96741917  0.59417701  0.55888592    -0.83100
C239        C  0.93472973  0.53877804  0.52144667     0.97900
C240        C  0.95778759  0.59488524  0.58843455     1.03800
O241        O  0.91701173  0.53952563  0.54794525    -0.78800
C242        C  0.89763468  0.63487533  0.45768709     1.02100
Fe243      Fe  0.12296054  0.32727796  0.48927497     1.65800
Fe244      Fe  0.04879070  0.37313292  0.50655044     1.73200
Fe245      Fe  0.10060730  0.40111760  0.44597268     1.54400
O246        O  0.14890882  0.41446510  0.46904934    -0.82500
O247        O  0.01789155  0.38815271  0.46595334    -0.80800
O248        O  0.16754670  0.35971033  0.48265054    -0.85000
O249        O  0.12167742  0.31176195  0.44228151    -0.79900
O250        O  0.07072327  0.44335023  0.46785328    -0.81600
O251        O  0.03217881  0.32373935  0.49915324    -0.84400
C252        C  0.12678500  0.32927726  0.41654316     0.96400
C253        C  0.17277862  0.39317517  0.48001449     1.03800
O254        O  0.09061998  0.36644463  0.48035720    -1.13400
O255        O  0.07287892  0.35785742  0.54914615    -0.75800
O256        O  0.12674277  0.33813666  0.53718545    -0.79300
O257        O  0.12626651  0.36331440  0.41588249    -0.80000
C258        C  0.10342574  0.34713131  0.55732109     0.95300
O259        O  0.08186411  0.29134475  0.49798810    -0.77900
O260        O  0.06473493  0.42279813  0.51666453    -0.83100
C261        C  0.02278621  0.38837425  0.43540723     0.97900
C262        C  0.05653462  0.44542892  0.49583711     1.03800
O263        O  0.05374456  0.38816471  0.42312459    -0.78800
C264        C  0.04833392  0.29454465  0.49927901     1.02100
Fe265      Fe  0.62147615  0.82646000  0.99509293     1.65800
Fe266      Fe  0.54508737  0.86945207  0.00226642     1.73200
Fe267      Fe  0.60177429  0.89470104  0.94452438     1.54400
O268        O  0.64925091  0.91002027  0.96856203    -0.82500
O269        O  0.51747702  0.88441209  0.96005563    -0.80800
O270        O  0.66685334  0.85652536  0.98601058    -0.85000
O271        O  0.62198618  0.80516369  0.94976778    -0.79900
O272        O  0.57212227  0.93866252  0.96359209    -0.81600
O273        O  0.53059650  0.81943445  0.99306197    -0.84400
C274        C  0.62658453  0.81976678  0.92226343     0.96400
C275        C  0.67263949  0.88952600  0.98145670     1.03800
O276        O  0.58947785  0.86317590  0.98021412    -1.13400
O277        O  0.56503739  0.85440913  0.04726367    -0.75800
O278        O  0.62222944  0.84671525  0.04075149    -0.79300
O279        O  0.62792027  0.85364710  0.91874756    -0.80000
C280        C  0.59593883  0.85148242  0.05901714     0.95300
O281        O  0.58001690  0.79147679  0.00757306    -0.77900
O282        O  0.55968739  0.91948937  0.01240559    -0.83100
C283        C  0.52410954  0.88143222  0.93000639     0.97900
C284        C  0.55616083  0.94265370  0.99066441     1.03800
O285        O  0.55595837  0.87976389  0.91991620    -0.78800
C286        C  0.54666476  0.79197831  0.00265237     1.02100
Fe287      Fe  0.37705336  0.14955004  0.00635227     1.65800
Fe288      Fe  0.45110312  0.10215217  0.00267171     1.73200
Fe289      Fe  0.39088747  0.08266179  0.05938172     1.54400
O290        O  0.36823496  0.12725792  0.08323066    -0.82500
O291        O  0.43420896  0.05264433  0.99272428    -0.80800
O292        O  0.37807046  0.17383330  0.05052078    -0.85000
O293        O  0.32888367  0.12389941  0.01569128    -0.79900
O294        O  0.43752730  0.09474852  0.08456622    -0.81600
O295        O  0.43387656  0.11791968  0.95693210    -0.84400
C296        C  0.32035850  0.09166158  0.02124169     0.96400
C297        C  0.37219086  0.16083680  0.07842137     1.03800
O298        O  0.40619195  0.11147368  0.02308380    -1.13400
O299        O  0.46762913  0.15183055  0.01192954    -0.75800
O300        O  0.42087412  0.18009398  0.99249110    -0.79300
O301        O  0.34214004  0.07015902  0.03525896    -0.80000
C302        C  0.45386477  0.17864950  0.99852987     0.95300
O303        O  0.37618057  0.12669612  0.96205593    -0.77900
O304        O  0.47652202  0.08610257  0.04551869    -0.83100
C305        C  0.43370346  0.02968137  0.01499827     0.97900
C306        C  0.46950155  0.09110218  0.07520027     1.03800
O307        O  0.41707172  0.03589239  0.04145233    -0.78800
C308        C  0.40347167  0.12327112  0.94471836     1.02100
Fe309      Fe  0.90718936  0.61600056  0.25588142     1.65800
Fe310      Fe  0.86642041  0.69297235  0.26296215     1.73200
Fe311      Fe  0.84131079  0.63865189  0.20422279     1.54400
O312        O  0.88302966  0.61255803  0.17940441    -0.82500
O313        O  0.81658654  0.67729017  0.27305462    -0.80800
O314        O  0.93042609  0.61701270  0.21145690    -0.85000
O315        O  0.87771590  0.57159996  0.24462312    -0.79900
O316        O  0.85512822  0.68593130  0.18005238    -0.81600
O317        O  0.88101403  0.67240024  0.30743208    -0.84400
C318        C  0.84510133  0.56628355  0.23907718     0.96400
C319        C  0.91666279  0.61136654  0.18406360     1.03800
O320        O  0.87209786  0.64927256  0.24037208    -1.13400
O321        O  0.91682388  0.70630686  0.25335611    -0.75800
O322        O  0.94114124  0.65585656  0.27052819    -0.79300
O323        O  0.82512830  0.59048444  0.22690502    -0.80000
C324        C  0.94224240  0.68915814  0.26566940     0.95300
O325        O  0.88553180  0.61430672  0.30121898    -0.77900
O326        O  0.85170503  0.72228165  0.22171957    -0.83100
C327        C  0.79499892  0.68373622  0.25093335     0.97900
C328        C  0.85280918  0.71723243  0.19146564     1.03800
O329        O  0.79818343  0.66806560  0.22378371    -0.78800
C330        C  0.88319734  0.64125655  0.31906832     1.02100
Fe331      Fe  0.58882313  0.86962516  0.26329924     1.65800
Fe332      Fe  0.63537152  0.79573890  0.25311316     1.73200
Fe333      Fe  0.65834958  0.84982943  0.31242578     1.54400
O334        O  0.67202144  0.89807555  0.28901244    -0.82500
O335        O  0.65094146  0.76632374  0.29443524    -0.80800
O336        O  0.61840645  0.91533067  0.27190907    -0.85000
O337        O  0.56830958  0.86859339  0.30925599    -0.79900
O338        O  0.70222558  0.82207566  0.29208725    -0.81600
O339        O  0.58678787  0.77814710  0.26231542    -0.84400
C340        C  0.58327939  0.87369221  0.33623818     0.96400
C341        C  0.65129990  0.92129094  0.27631546     1.03800
O342        O  0.62667718  0.83825620  0.27688558    -1.13400
O343        O  0.61948211  0.81601264  0.20897243    -0.75800
O344        O  0.60598586  0.87262626  0.21637467    -0.79300
O345        O  0.61709136  0.87400628  0.33932840    -0.80000
C346        C  0.61219677  0.84666571  0.19812238     0.95300
O347        O  0.55605384  0.82704633  0.25123529    -0.77900
O348        O  0.68351474  0.81566721  0.24290764    -0.83100
C349        C  0.64770368  0.77141381  0.32468157     0.97900
C350        C  0.70567402  0.80842870  0.26413788     1.03800
O351        O  0.64595192  0.80254754  0.33628069    -0.78800
C352        C  0.55857197  0.79340030  0.25401065     1.02100
Fe353      Fe  0.87033177  0.82915109  0.02385359     1.65800
Fe354      Fe  0.94061270  0.88085651  0.00885718     1.73200
Fe355      Fe  0.88414815  0.90315206  0.06739751     1.54400
O356        O  0.83714332  0.91435081  0.04125246    -0.82500
O357        O  0.96813115  0.89584163  0.05171929    -0.80800
O358        O  0.82308963  0.85847356  0.02729675    -0.85000
O359        O  0.86914778  0.81336533  0.07111554    -0.79900
O360        O  0.91404244  0.94712438  0.04741882    -0.81600
O361        O  0.96247224  0.83351781  0.01568535    -0.84400
C362        C  0.85910270  0.82998000  0.09577380     0.96400
C363        C  0.81537277  0.89150906  0.02950218     1.03800
O364        O  0.89868009  0.86998242  0.03383492    -1.13400
O365        O  0.92022078  0.86521874  0.96474224    -0.75800
O366        O  0.86832076  0.84067747  0.97535542    -0.79300
O367        O  0.85718019  0.86392690  0.09576863    -0.80000
C368        C  0.89090746  0.85251130  0.95548313     0.95300
O369        O  0.91580316  0.79737184  0.01933351    -0.77900
O370        O  0.91882080  0.92826908  0.99892108    -0.83100
C371        C  0.96126759  0.89137465  0.08187779     0.97900
C372        C  0.92788787  0.95015964  0.01938227     1.03800
O373        O  0.92962216  0.89047661  0.09262140    -0.78800
C374        C  0.94924067  0.80303773  0.01792261     1.02100
Fe375      Fe  0.12095392  0.15150810  0.99371382     1.65800
Fe376      Fe  0.04679165  0.10605868  0.00714369     1.73200
Fe377      Fe  0.09947208  0.08161616  0.94686079     1.54400
O378        O  0.12326383  0.12326335  0.91915501    -0.82500
O379        O  0.06519358  0.05697930  0.01674832    -0.80800
O380        O  0.11657757  0.17254367  0.94825881    -0.85000
O381        O  0.16661941  0.12324775  0.98176154    -0.79900
O382        O  0.05127758  0.09374721  0.92381079    -0.81600
O383        O  0.06996014  0.12029366  0.05015021    -0.84400
C384        C  0.17306559  0.09018033  0.97948804     0.96400
C385        C  0.12169822  0.15721183  0.92158371     1.03800
O386        O  0.08871547  0.11382998  0.98185793    -1.13400
O387        O  0.03004009  0.15571272  0.99880529    -0.75800
O388        O  0.07979557  0.18461817  0.00902300    -0.79300
O389        O  0.14910947  0.06838025  0.96959344    -0.80000
C390        C  0.04612765  0.18317427  0.00774878     0.95300
O391        O  0.12654537  0.13202274  0.03956824    -0.77900
O392        O  0.01580717  0.09183873  0.96687228    -0.83100
C393        C  0.05648602  0.03511141  0.99599884     0.97900
C394        C  0.02026567  0.09310022  0.93633424     1.03800
O395        O  0.07095124  0.03762793  0.96810122    -0.78800
C396        C  0.10153882  0.12568876  0.05907949     1.02100
Fe397      Fe  0.08239023  0.12693812  0.26123291     1.65800
Fe398      Fe  0.14136000  0.19230335  0.24819739     1.73200
Fe399      Fe  0.15139395  0.13991744  0.31302742     1.54400
O400        O  0.10752929  0.11877276  0.33822876    -0.82500
O401        O  0.18870527  0.16878446  0.24813946    -0.80800
O402        O  0.06157380  0.12845868  0.30660982    -0.85000
O403        O  0.10809030  0.07909511  0.27008924    -0.79900
O404        O  0.13965261  0.18844003  0.33365267    -0.81600
O405        O  0.13449936  0.16698580  0.20546954    -0.84400
C406        C  0.13881282  0.06844401  0.27879410     0.96400
C407        C  0.07426932  0.12255949  0.33431704     1.03800
O408        O  0.12390073  0.15350146  0.27440090    -1.13400
O409        O  0.09440641  0.21567697  0.24341297    -0.75800
O410        O  0.05450398  0.17307884  0.25088314    -0.79300
O411        O  0.16176961  0.08929516  0.29197250    -0.80000
C412        C  0.06294542  0.20512585  0.24419305     0.95300
O413        O  0.09664847  0.12278262  0.21366400    -0.77900
O414        O  0.14835323  0.22378035  0.29037438    -0.83100
C415        C  0.20690138  0.17922682  0.27082826     0.97900
C416        C  0.14278732  0.21924983  0.32077357     1.03800
O417        O  0.19987546  0.16579028  0.29841431    -0.78800
C418        C  0.11583109  0.14169207  0.19531924     1.02100
Fe419      Fe  0.41895805  0.36636743  0.23438871     1.65800
Fe420      Fe  0.38032409  0.28948204  0.24739520     1.73200
Fe421      Fe  0.34073406  0.34682966  0.19745043     1.54400
O422        O  0.33544078  0.39854489  0.21747128    -0.82500
O423        O  0.38853623  0.26784249  0.20184784    -0.80800
O424        O  0.38695913  0.40947021  0.24250839    -0.85000
O425        O  0.42549925  0.38062104  0.18723924    -0.79900
O426        O  0.30196816  0.32673557  0.23108953    -0.81600
O427        O  0.43144289  0.29147298  0.26005486    -0.84400
C428        C  0.40794033  0.37766916  0.16143021     0.96400
C429        C  0.35590269  0.41870632  0.23411075     1.03800
O430        O  0.37911989  0.33544191  0.22644378    -1.13400
O431        O  0.37213974  0.31418310  0.29111020    -0.75800
O432        O  0.41466601  0.35521607  0.28387046    -0.79300
O433        O  0.37598310  0.36611298  0.16118051    -0.80000
C434        C  0.39282681  0.33821768  0.30204655     0.95300
O435        O  0.45437101  0.32548439  0.22374961    -0.77900
O436        O  0.32961741  0.27666647  0.24098809    -0.83100
C437        C  0.36747214  0.27050463  0.17776265     0.97900
C438        C  0.30233263  0.29502634  0.24273775     1.03800
O439        O  0.34503405  0.29614161  0.17513618    -0.78800
C440        C  0.45439874  0.29655255  0.23929901     1.02100
Fe441      Fe  0.62228699  0.64967732  0.49104547     1.65800
Fe442      Fe  0.54638412  0.60482880  0.49793164     1.73200
Fe443      Fe  0.60393687  0.58166219  0.44100982     1.54400
O444        O  0.62973534  0.62333089  0.41500739    -0.82500
O445        O  0.56253163  0.55536775  0.50958663    -0.80800
O446        O  0.62562371  0.67162399  0.44564507    -0.85000
O447        O  0.66773594  0.61997453  0.48438209    -0.79900
O448        O  0.55754957  0.59570608  0.41617141    -0.81600
O449        O  0.56416471  0.62176630  0.54249118    -0.84400
C450        C  0.67408762  0.58742936  0.47903728     0.96400
C451        C  0.63133659  0.65707434  0.41869782     1.03800
O452        O  0.59094389  0.61257542  0.47612912    -1.13400
O453        O  0.53124984  0.65396185  0.48686802    -0.75800
O454        O  0.58011780  0.68393948  0.50040082    -0.79300
O455        O  0.65148904  0.56709632  0.46521998    -0.80000
C456        C  0.54711071  0.68212499  0.49427299     0.95300
O457        O  0.62142946  0.62967097  0.53718182    -0.77900
O458        O  0.51939920  0.58855417  0.45631713    -0.83100
C459        C  0.55993843  0.53227405  0.48808567     0.97900
C460        C  0.52572191  0.59344999  0.42641376     1.03800
O461        O  0.57564213  0.53710222  0.46094473    -0.78800
C462        C  0.59448241  0.62608173  0.55485821     1.02100
Fe463      Fe  0.36845662  0.33596387  0.50540195     1.65800
Fe464      Fe  0.44417418  0.38098600  0.49947930     1.73200
Fe465      Fe  0.38723440  0.40245589  0.55758406     1.54400
O466        O  0.33974914  0.41818471  0.53416999    -0.82500
O467        O  0.47137596  0.39498023  0.54203330    -0.80800
O468        O  0.32351171  0.36625008  0.51276715    -0.85000
O469        O  0.36602597  0.31353693  0.55074919    -0.79900
O470        O  0.41644179  0.44756230  0.53940500    -0.81600
O471        O  0.45986197  0.33105890  0.50784285    -0.84400
C472        C  0.36016644  0.32679796  0.57822017     0.96400
C473        C  0.31697054  0.39829769  0.52008072     1.03800
O474        O  0.39986545  0.37255646  0.52120480    -1.13400
O475        O  0.42562051  0.36725230  0.45419096    -0.75800
O476        O  0.36896038  0.35531884  0.45852345    -0.79300
O477        O  0.36076095  0.36044795  0.58249245    -0.80000
C478        C  0.39585309  0.36167344  0.44115007     0.95300
O479        O  0.41012705  0.30167431  0.49577587    -0.77900
O480        O  0.42716175  0.43050814  0.49025474    -0.83100
C481        C  0.46499262  0.39025150  0.57202398     0.97900
C482        C  0.43179236  0.45263154  0.51215968     1.03800
O483        O  0.43322165  0.38718140  0.58210789    -0.78800
C484        C  0.44331882  0.30302284  0.50099109     1.02100
Fe485      Fe  0.90510301  0.86136569  0.75287634     1.65800
Fe486      Fe  0.85959713  0.78685350  0.76135560     1.73200
Fe487      Fe  0.83991301  0.84229020  0.70051450     1.54400
O488        O  0.82506570  0.89098262  0.72254079    -0.82500
O489        O  0.84533937  0.75826583  0.71959047    -0.80800
O490        O  0.87848173  0.90760733  0.73974396    -0.85000
O491        O  0.93011406  0.85940470  0.70877120    -0.79900
O492        O  0.79477548  0.81372864  0.71891158    -0.81600
O493        O  0.90911425  0.76995926  0.75397036    -0.84400
C494        C  0.91716670  0.86759913  0.68133891     0.96400
C495        C  0.84608378  0.91447189  0.73417183     1.03800
O496        O  0.86886405  0.82990307  0.73749145    -1.13400
O497        O  0.87335921  0.80778958  0.80632547    -0.75800
O498        O  0.88099539  0.86495742  0.79710892    -0.79300
O499        O  0.88349014  0.86767365  0.67644591    -0.80000
C500        C  0.87593128  0.83939580  0.81658801     0.95300
O501        O  0.93623503  0.81916610  0.76951399    -0.77900
O502        O  0.81020244  0.80482133  0.76912563    -0.83100
C503        C  0.84798759  0.76343284  0.68920280     0.97900
C504        C  0.78974865  0.79822254  0.74628536     1.03800
O505        O  0.85305909  0.79467562  0.67758670    -0.78800
C506        C  0.93563231  0.78570855  0.76538758     1.02100
Fe507      Fe  0.57630592  0.61911108  0.75864948     1.65800
Fe508      Fe  0.62745802  0.69094530  0.74960705     1.73200
Fe509      Fe  0.64625312  0.63247624  0.80840848     1.54400
O510        O  0.60336196  0.60890156  0.83464381    -0.82500
O511        O  0.67449940  0.66854039  0.74052533    -0.80800
O512        O  0.55586622  0.61702305  0.80381924    -0.85000
O513        O  0.60420859  0.57153508  0.76452808    -0.79900
O514        O  0.63561320  0.67823606  0.83330081    -0.81600
O515        O  0.61205815  0.67325607  0.70436002    -0.84400
C516        C  0.63656552  0.56357924  0.76988960     0.96400
C517        C  0.56965162  0.61133895  0.83112044     1.03800
O518        O  0.61550537  0.64791185  0.77296269    -1.13400
O519        O  0.58015226  0.71203905  0.75630858    -0.75800
O520        O  0.54501440  0.66455858  0.75089462    -0.79300
O521        O  0.65792317  0.58497278  0.78391833    -0.80000
C522        C  0.55009127  0.69802803  0.75356808     0.95300
O523        O  0.59334485  0.61828054  0.71217560    -0.77900
O524        O  0.64254763  0.71731124  0.79308258    -0.83100
C525        C  0.69629426  0.67495102  0.76205674     0.97900
C526        C  0.63852257  0.71013667  0.82324017     1.03800
O527        O  0.69195726  0.66003556  0.78968826    -0.78800
C528        C  0.60253398  0.64334438  0.69365832     1.02100
Fe529      Fe  0.91184828  0.37168220  0.26346013     1.65800
Fe530      Fe  0.87568996  0.29209774  0.25704768     1.73200
Fe531      Fe  0.84213146  0.34851955  0.30987445     1.54400
O532        O  0.88108449  0.37527911  0.33816134    -0.82500
O533        O  0.82644810  0.30087950  0.24022925    -0.80800
O534        O  0.93133856  0.37323427  0.30954019    -0.85000
O535        O  0.88051139  0.41574944  0.27107593    -0.79900
O536        O  0.85570423  0.30324244  0.33614348    -0.81600
O537        O  0.89519503  0.31193816  0.21322906    -0.84400
C538        C  0.84750641  0.42046726  0.27477200     0.96400
C539        C  0.91504852  0.37743117  0.33604789     1.03800
O540        O  0.87596622  0.33793603  0.27681416    -1.13400
O541        O  0.92469459  0.28402438  0.27465049    -0.75800
O542        O  0.94822475  0.33225027  0.25259446    -0.79300
O543        O  0.82710022  0.39590671  0.28564471    -0.80000
C544        C  0.94989896  0.29967863  0.26069716     0.95300
O545        O  0.89319221  0.37033222  0.21701112    -0.77900
O546        O  0.85614692  0.26415746  0.29709590    -0.83100
C547        C  0.80064947  0.30021390  0.25951371     0.97900
C548        C  0.85508288  0.27122467  0.32692855     1.03800
O549        O  0.80156661  0.31798108  0.28597420    -0.78800
C550        C  0.89479992  0.34257425  0.20009268     1.02100
Fe551      Fe  0.58909324  0.11491244  0.24394988     1.65800
Fe552      Fe  0.63036664  0.19062728  0.25464714     1.73200
Fe553      Fe  0.65703845  0.13719617  0.19385979     1.54400
O554        O  0.66706736  0.08478519  0.21280277    -0.82500
O555        O  0.61911260  0.21963968  0.21293896    -0.80800
O556        O  0.62457445  0.07413795  0.25008633    -0.85000
O557        O  0.57582419  0.09752441  0.19942742    -0.79900
O558        O  0.70407731  0.15716941  0.21581263    -0.81600
O559        O  0.57911598  0.18989428  0.26889827    -0.84400
C560        C  0.58487612  0.10384311  0.17082201     0.96400
C561        C  0.65257145  0.06515585  0.23499773     1.03800
O562        O  0.62692774  0.14683908  0.23066372    -1.13400
O563        O  0.64249479  0.16151672  0.29546279    -0.75800
O564        O  0.59493575  0.12734165  0.29238869    -0.79300
O565        O  0.61429724  0.11927564  0.16500731    -0.80000
C566        C  0.61924148  0.14188688  0.30883080     0.95300
O567        O  0.55364531  0.15532890  0.23484014    -0.77900
O568        O  0.68123839  0.19948349  0.24606905    -0.83100
C569        C  0.63091008  0.21631895  0.18425849     0.97900
C570        C  0.70715993  0.18530561  0.23267210     1.03800
O571        O  0.64720394  0.18845713  0.17453627    -0.78800
C572        C  0.55524333  0.18485807  0.24878940     1.02100
Fe573      Fe  0.87523394  0.32939105  0.99991723     1.65800
Fe574      Fe  0.95192786  0.37254903  0.00154175     1.73200
Fe575      Fe  0.89177641  0.39603634  0.94637435     1.54400
O576        O  0.86649504  0.35263160  0.92311854    -0.82500
O577        O  0.93994167  0.42321112  0.01194840    -0.80800
O578        O  0.87455637  0.30542317  0.95561508    -0.85000
O579        O  0.82842316  0.35746038  0.99074984    -0.79900
O580        O  0.93697626  0.38205661  0.91993222    -0.81600
O581        O  0.93451339  0.35853711  0.04781985    -0.84400
C582        C  0.82118639  0.38989438  0.98463467     0.96400
C583        C  0.86905925  0.31893304  0.92784080     1.03800
O584        O  0.90589441  0.36641164  0.98260427    -1.13400
O585        O  0.96381795  0.32207815  0.99120341    -0.75800
O586        O  0.91757209  0.29646726  0.01391849    -0.79300
O587        O  0.84399769  0.41059742  0.97092106    -0.80000
C588        C  0.95038474  0.29679692  0.00699321     0.95300
O589        O  0.87614737  0.35189971  0.04453128    -0.77900
O590        O  0.97749283  0.38651106  0.95826620    -0.83100
C591        C  0.93879720  0.44660089  0.99004145     0.97900
C592        C  0.96934302  0.38307762  0.92864316     1.03800
O593        O  0.92091831  0.44146725  0.96399938    -0.78800
C594        C  0.90423158  0.35509337  0.06097508     1.02100
Fe595      Fe  0.12034539  0.65318996  0.02009101     1.65800
Fe596      Fe  0.04401166  0.60893966  0.01395457     1.73200
Fe597      Fe  0.10330273  0.58278072  0.06912009     1.54400
O598        O  0.15031615  0.56910017  0.04352895    -0.82500
O599        O  0.01851602  0.59144678  0.05616161    -0.80800
O600        O  0.16611823  0.62292493  0.02519788    -0.85000
O601        O  0.12417091  0.67304741  0.06559909    -0.79900
O602        O  0.07353102  0.53893116  0.04912955    -0.81600
O603        O  0.02971161  0.65781404  0.02656092    -0.84400
C604        C  0.13002934  0.65784089  0.09244814     0.96400
C605        C  0.17253929  0.58998881  0.02936290     1.03800
O606        O  0.08944570  0.61514188  0.03462921    -1.13400
O607        O  0.06084449  0.62696070  0.96868524    -0.75800
O608        O  0.11830621  0.63602287  0.97372864    -0.79300
O609        O  0.12943674  0.62381387  0.09567520    -0.80000
C610        C  0.09118606  0.63212345  0.95633181     0.95300
O611        O  0.07811580  0.68790066  0.01210399    -0.77900
O612        O  0.05836746  0.55954309  0.00109279    -0.83100
C613        C  0.02620143  0.59490216  0.08587620     0.97900
C614        C  0.05702252  0.53530976  0.02217381     1.03800
O615        O  0.05829194  0.59602564  0.09517397    -0.78800
C616        C  0.04522144  0.68616345  0.01875533     1.02100
Fe617      Fe  0.61764400  0.15971520  0.51222248     1.65800
Fe618      Fe  0.54563678  0.10922767  0.50110919     1.73200
Fe619      Fe  0.60172941  0.08840710  0.56111694     1.54400
O620        O  0.64989570  0.07643007  0.53750035    -0.82500
O621        O  0.51746941  0.09492964  0.54423511    -0.80800
O622        O  0.66429810  0.13051900  0.51836922    -0.85000
O623        O  0.61862865  0.17857984  0.55729678    -0.79900
O624        O  0.57425360  0.04305768  0.54235272    -0.81600
O625        O  0.52541532  0.15764709  0.50657732    -0.84400
C626        C  0.62344501  0.16402466  0.58436996     0.96400
C627        C  0.67188403  0.09794457  0.52391914     1.03800
O628        O  0.58800289  0.12008254  0.52532679    -1.13400
O629        O  0.56610213  0.12362189  0.45613768    -0.75800
O630        O  0.61964231  0.14502212  0.46553597    -0.79300
O631        O  0.62527533  0.13020741  0.58775791    -0.80000
C632        C  0.59612314  0.13453214  0.44641799     0.95300
O633        O  0.57340981  0.19237953  0.50464747    -0.77900
O634        O  0.56646707  0.06103019  0.49304798    -0.83100
C635        C  0.52386324  0.09801235  0.57453482     0.97900
C636        C  0.56001979  0.03883778  0.51466192     1.03800
O637        O  0.55540052  0.09973087  0.58521792    -0.78800
C638        C  0.53986774  0.18778869  0.50554661     1.02100
Fe639      Fe  0.37319138  0.82492662  0.49484889     1.65800
Fe640      Fe  0.45051621  0.86661834  0.50609977     1.73200
Fe641      Fe  0.39488375  0.89606151  0.44857169     1.54400
O642        O  0.36988326  0.85621353  0.42025381    -0.82500
O643        O  0.43729501  0.91675567  0.51726951    -0.80800
O644        O  0.37371370  0.80554010  0.44873331    -0.85000
O645        O  0.32827063  0.85499928  0.48602282    -0.79900
O646        O  0.44141761  0.88470808  0.42362220    -0.81600
O647        O  0.42886445  0.85155204  0.54995361    -0.84400
C648        C  0.32272741  0.88817404  0.48409570     0.96400
C649        C  0.37007489  0.82211037  0.42207136     1.03800
O650        O  0.40659892  0.86191199  0.48245924    -1.13400
O651        O  0.46388265  0.81668720  0.49683282    -0.75800
O652        O  0.41278422  0.78866874  0.50648471    -0.79300
O653        O  0.34668678  0.90955084  0.47323199    -0.80000
C654        C  0.44605718  0.78902150  0.50220944     0.95300
O655        O  0.37159314  0.84385411  0.54082289    -0.77900
O656        O  0.47954339  0.88108468  0.46457664    -0.83100
C657        C  0.44217139  0.93991280  0.49594165     0.97900
C658        C  0.47305475  0.88283642  0.43440331     1.03800
O659        O  0.42472278  0.93827015  0.46949875    -0.78800
C660        C  0.39717498  0.84934534  0.55982490     1.02100
Fe661      Fe  0.40391960  0.86963779  0.76181109     1.65800
Fe662      Fe  0.35830551  0.79511710  0.75034039     1.73200
Fe663      Fe  0.33521588  0.84864949  0.81030593     1.54400
O664        O  0.37657137  0.87367012  0.83735488    -0.82500
O665        O  0.30953337  0.81351159  0.74029097    -0.80800
O666        O  0.42460591  0.86696060  0.80702294    -0.85000
O667        O  0.37521240  0.91528497  0.77177233    -0.79900
O668        O  0.34827573  0.80058405  0.83335553    -0.81600
O669        O  0.37443775  0.81694985  0.70697595    -0.84400
C670        C  0.34236257  0.92140414  0.77556432     0.96400
C671        C  0.41040950  0.87348413  0.83393666     1.03800
O672        O  0.36648165  0.83761069  0.77469794    -1.13400
O673        O  0.40720501  0.77771648  0.75924950    -0.75800
O674        O  0.43724262  0.82798490  0.74963960    -0.79300
O675        O  0.32122726  0.89769918  0.78725949    -0.80000
C676        C  0.43540473  0.79442348  0.75328729     0.95300
O677        O  0.38521189  0.87381735  0.71575495    -0.77900
O678        O  0.34205713  0.76532030  0.79105441    -0.83100
C679        C  0.28784841  0.80581006  0.76192713     0.97900
C680        C  0.34473175  0.76957545  0.82142035     1.03800
O681        O  0.29146582  0.82005732  0.78972240    -0.78800
C682        C  0.37958765  0.84838025  0.69686527     1.02100
Fe683      Fe  0.08204768  0.61689865  0.75534767     1.65800
Fe684      Fe  0.12686129  0.69167589  0.75987886     1.73200
Fe685      Fe  0.14666555  0.63617516  0.70082486     1.54400
O686        O  0.16231488  0.58816822  0.72359684    -0.82500
O687        O  0.14004168  0.71981932  0.71694176    -0.80800
O688        O  0.10989281  0.57126101  0.74367361    -0.85000
O689        O  0.05710763  0.61765399  0.71193977    -0.79900
O690        O  0.19202806  0.66555884  0.71816381    -0.81600
O691        O  0.07719817  0.70722012  0.75189705    -0.84400
C692        C  0.06927232  0.61227439  0.68390282     0.96400
C693        C  0.14208712  0.56477347  0.73676794     1.03800
O694        O  0.11791335  0.64825517  0.73802938    -1.13400
O695        O  0.11321722  0.67234360  0.80564816    -0.75800
O696        O  0.10537934  0.61474412  0.79970740    -0.79300
O697        O  0.10270245  0.61109363  0.67798732    -0.80000
C698        C  0.10895824  0.64142403  0.81755286     0.95300
O699        O  0.05017889  0.65923886  0.77065049    -0.77900
O700        O  0.17623598  0.67354830  0.76813841    -0.83100
C701        C  0.13609354  0.71385669  0.68687504     0.97900
C702        C  0.19688601  0.68066210  0.74549116     1.03800
O703        O  0.13240831  0.68245402  0.67633141    -0.78800
C704        C  0.05129293  0.69271625  0.76580730     1.02100
C705        C  0.27562224  0.74460560  0.73803971    -0.02700
C706        C  0.26407049  0.77434468  0.75664695     0.07000
C707        C  0.23084921  0.77243288  0.77171685    -0.02800
C708        C  0.20926697  0.74212909  0.76810209    -0.02800
C709        C  0.22071241  0.71235477  0.74960618     0.07100
C710        C  0.25419046  0.71395650  0.73495374    -0.03000
Br711      Br  0.27198869  0.67274362  0.71270265    -0.01500
Br712      Br  0.32163922  0.74311471  0.71756423    -0.01600
Br713      Br  0.16335426  0.74396196  0.78839178    -0.01600
Br714      Br  0.21392566  0.81222085  0.79664712    -0.01600
C715        C  0.36251340  0.83283316  0.60927185    -0.02700
C716        C  0.39008675  0.85269243  0.59465818     0.07000
C717        C  0.41100193  0.87560480  0.61377795    -0.02800
C718        C  0.40749500  0.87490886  0.64747763    -0.02800
C719        C  0.38031819  0.85449067  0.66184392     0.07100
C720        C  0.35610511  0.83610809  0.64232279    -0.03000
Br721      Br  0.31299870  0.81678660  0.66043032    -0.01500
Br722      Br  0.33539433  0.79798038  0.58575315    -0.01600
Br723      Br  0.44178390  0.90005761  0.67343426    -0.01600
Br724      Br  0.44378666  0.90917571  0.59463032    -0.01600
C725        C  0.53239403  0.97809020  0.52134399    -0.02700
C726        C  0.53067835  0.01283015  0.50880006     0.07000
C727        C  0.49985709  0.02326774  0.49096701    -0.02800
C728        C  0.47066007  0.00008991  0.48791146    -0.02800
C729        C  0.47226088  0.96538986  0.50060594     0.07100
C730        C  0.50401716  0.95420636  0.51660923    -0.03000
Br731      Br  0.51141017  0.90547032  0.53037168    -0.01500
Br732      Br  0.57501674  0.96231371  0.54308044    -0.01600
Br733      Br  0.42738421  0.01696741  0.46796827    -0.01600
Br734      Br  0.49539823  0.06961923  0.47073561    -0.01600
C735        C  0.07899404  0.61511708  0.86643259    -0.02700
C736        C  0.10585726  0.63698236  0.85299875     0.07000
C737        C  0.12768973  0.65691504  0.87360605    -0.02800
C738        C  0.12117476  0.65716457  0.90696073    -0.02800
C739        C  0.09540501  0.63415086  0.92069741     0.07100
C740        C  0.07465141  0.61273559  0.90014096    -0.03000
Br741      Br  0.04046900  0.57927816  0.91740220    -0.01500
Br742      Br  0.04624598  0.58972292  0.83906747    -0.01600
Br743      Br  0.14579715  0.69193705  0.93276479    -0.01600
Br744      Br  0.16819147  0.68241731  0.85671294    -0.01600
C745        C  0.96817315  0.48972679  0.02629745    -0.02700
C746        C  0.96417841  0.47674236  0.99471695     0.07000
C747        C  0.99290853  0.48113205  0.97319585    -0.02800
C748        C  0.02566642  0.49503486  0.98390279    -0.02800
C749        C  0.03001021  0.50687769  0.01592362     0.07100
C750        C  0.00127554  0.50214680  0.03742639    -0.03000
Br751      Br  0.00754046  0.50847279  0.08285277    -0.01500
Br752      Br  0.92685644  0.49263644  0.05351429    -0.01600
Br753      Br  0.06611866  0.49515381  0.95542428    -0.01600
Br754      Br  0.98712187  0.47054941  0.92840746    -0.01600
C755        C  0.59691837  0.10568679  0.39243211    -0.02700
C756        C  0.60443250  0.13535302  0.41160821     0.07000
C757        C  0.62104411  0.16549597  0.39761348    -0.02800
C758        C  0.62686256  0.16734628  0.36416734    -0.02800
C759        C  0.61768264  0.13823629  0.34447793     0.07100
C760        C  0.60326931  0.10705771  0.35902423    -0.03000
Br761      Br  0.59161488  0.06551032  0.33399429    -0.01500
Br762      Br  0.58033165  0.06194708  0.41224124    -0.01600
Br763      Br  0.64412622  0.21181206  0.34595082    -0.01600
Br764      Br  0.63557013  0.20527008  0.42368234    -0.01600
C765        C  0.88421789  0.32301122  0.11059471    -0.02700
C766        C  0.90197533  0.35220799  0.09643311     0.07000
C767        C  0.91916919  0.37704868  0.11619149    -0.02800
C768        C  0.91665272  0.37418658  0.14998733    -0.02800
C769        C  0.89761527  0.34564552  0.16439603     0.07100
C770        C  0.88250582  0.31933651  0.14433161    -0.03000
Br771      Br  0.85982933  0.27723416  0.16188781    -0.01500
Br772      Br  0.86433343  0.28616200  0.08381599    -0.01600
Br773      Br  0.94210783  0.40832359  0.17583412    -0.01600
Br774      Br  0.94678867  0.41496246  0.09714831    -0.01600
C775        C  0.75076300  0.22959216  0.21279361    -0.02700
C776        C  0.74021024  0.20592415  0.23758079     0.07000
C777        C  0.74779413  0.21510107  0.26986316    -0.02800
C778        C  0.76258146  0.24843200  0.27747236    -0.02800
C779        C  0.77327990  0.27228886  0.25272534     0.07100
C780        C  0.76627590  0.26278985  0.22026596    -0.03000
Br781      Br  0.77339073  0.29748875  0.18616764    -0.01500
Br782      Br  0.74108107  0.21756528  0.16853209    -0.01600
Br783      Br  0.76477359  0.26183347  0.32209483    -0.01600
Br784      Br  0.73439868  0.18252731  0.30414802    -0.01600
C785        C  0.49579031  0.72199247  0.72778314    -0.02700
C786        C  0.52050963  0.72275795  0.75315870     0.07000
C787        C  0.51955439  0.75034904  0.77611523    -0.02800
C788        C  0.49240858  0.77529618  0.77508846    -0.02800
C789        C  0.46693748  0.77327056  0.75071278     0.07100
C790        C  0.46873972  0.74723937  0.72671422    -0.03000
Br791      Br  0.43425630  0.74661775  0.69224657    -0.01500
Br792      Br  0.50054215  0.68878660  0.69297439    -0.01600
Br793      Br  0.48881559  0.81076826  0.80835544    -0.01600
Br794      Br  0.55490542  0.75489962  0.80937723    -0.01600
C795        C  0.00069452  0.77679873  0.77098401    -0.02700
C796        C  0.96603690  0.76382372  0.77442367     0.07000
C797        C  0.96045881  0.72837786  0.78506514    -0.02800
C798        C  0.98823186  0.70386687  0.78349771    -0.02800
C799        C  0.02249388  0.71638858  0.77606782     0.07100
C800        C  0.02879768  0.75351581  0.77577931    -0.03000
Br801      Br  0.07485927  0.77345692  0.78477832    -0.01500
Br802      Br  0.01095890  0.82473229  0.75639678    -0.01600
Br803      Br  0.97812134  0.65419342  0.79147224    -0.01600
Br804      Br  0.91562166  0.71361612  0.80326092    -0.01600
C805        C  0.77667502  0.73592495  0.76802846    -0.02700
C806        C  0.76573533  0.76664660  0.74993092     0.07000
C807        C  0.73272205  0.76591966  0.73442448    -0.02800
C808        C  0.71035165  0.73603702  0.73785644    -0.02800
C809        C  0.72100551  0.70564900  0.75663901     0.07100
C810        C  0.75454833  0.70585574  0.77109811    -0.03000
Br811      Br  0.77116775  0.66379095  0.79379218    -0.01500
Br812      Br  0.82269106  0.73227433  0.78795445    -0.01600
Br813      Br  0.66418832  0.73995222  0.71799814    -0.01600
Br814      Br  0.71692254  0.80706249  0.70990377    -0.01600
C815        C  0.49384943  0.27137763  0.47820953    -0.02700
C816        C  0.46448009  0.27122325  0.49901743     0.07000
C817        C  0.45955650  0.24402323  0.52183210    -0.02800
C818        C  0.48505240  0.21738450  0.52474763    -0.02800
C819        C  0.51558040  0.21806468  0.50478674     0.07100
C820        C  0.51979581  0.24520640  0.48144769    -0.03000
Br821      Br  0.55996408  0.24658398  0.45293455    -0.01500
Br822      Br  0.49775893  0.30710245  0.44454050    -0.01600
Br823      Br  0.47799420  0.18123433  0.55736547    -0.01600
Br824      Br  0.41879087  0.24417436  0.55014409    -0.01600
C825        C  0.51370658  0.72380704  0.52758126    -0.02700
C826        C  0.52465048  0.71279790  0.49680894     0.07000
C827        C  0.50597381  0.72317506  0.46899953    -0.02800
C828        C  0.47547119  0.74346055  0.47195688    -0.02800
C829        C  0.46595112  0.75654766  0.50220626     0.07100
C830        C  0.48479341  0.74678595  0.53015852    -0.03000
Br831      Br  0.47118435  0.76546862  0.57152172    -0.01500
Br832      Br  0.53710596  0.70625760  0.56598637    -0.01600
Br833      Br  0.44711281  0.75433470  0.43454791    -0.01600
Br834      Br  0.52258456  0.70992481  0.42683947    -0.01600
C835        C  0.62726822  0.64608150  0.60489862    -0.02700
C836        C  0.59798010  0.62825044  0.59067650     0.07000
C837        C  0.57125867  0.61378574  0.61115214    -0.02800
C838        C  0.57268918  0.61902652  0.64465545    -0.02800
C839        C  0.60149779  0.63738721  0.65846293     0.07100
C840        C  0.62935917  0.64952044  0.63860552    -0.03000
Br841      Br  0.67194993  0.66884428  0.65757873    -0.01500
Br842      Br  0.66459994  0.66803466  0.57941194    -0.01600
Br843      Br  0.53394253  0.60158035  0.67122508    -0.01600
Br844      Br  0.53233165  0.58561315  0.59466693    -0.01600
C845        C  0.47274188  0.48580507  0.47480221    -0.02700
C846        C  0.46184489  0.47828670  0.50695780     0.07000
C847        C  0.48596513  0.48564515  0.53215340    -0.02800
C848        C  0.52087285  0.49684755  0.52517798    -0.02800
C849        C  0.53141943  0.50501140  0.49317247     0.07100
C850        C  0.50758662  0.49721161  0.46795319    -0.03000
Br851      Br  0.52274757  0.49903797  0.42367911    -0.01500
Br852      Br  0.43907157  0.48293059  0.43963465    -0.01600
Br853      Br  0.55552086  0.49838914  0.55952731    -0.01600
Br854      Br  0.47129392  0.48386125  0.57651784    -0.01600
C855        C  0.49496436  0.20549755  0.23436459    -0.02700
C856        C  0.53024361  0.21371194  0.24200027     0.07000
C857        C  0.54080722  0.24993604  0.24522623    -0.02800
C858        C  0.51663426  0.27713437  0.23841312    -0.02800
C859        C  0.48071996  0.26863774  0.23523712     0.07100
C860        C  0.46980691  0.23245710  0.23515346    -0.03000
Br861      Br  0.42148545  0.21734200  0.24255276    -0.01500
Br862      Br  0.47916949  0.15716950  0.22670389    -0.01600
Br863      Br  0.53202303  0.32624027  0.23869133    -0.01600
Br864      Br  0.58625475  0.26439030  0.26259233    -0.01600
C865        C  0.36076428  0.34822008  0.35463884    -0.02700
C866        C  0.39276998  0.34648231  0.33716308     0.07000
C867        C  0.42477743  0.35478014  0.35308190    -0.02800
C868        C  0.42456120  0.36500466  0.38564337    -0.02800
C869        C  0.39345523  0.36050970  0.40478052     0.07100
C870        C  0.36114086  0.35271662  0.38845805    -0.03000
Br871      Br  0.31627486  0.34836213  0.41073424    -0.01500
Br872      Br  0.31599256  0.34829470  0.33192103    -0.01600
Br873      Br  0.46693393  0.38815968  0.40160991    -0.01600
Br874      Br  0.47007005  0.35035204  0.33140551    -0.01600
C875        C  0.01431736  0.29084232  0.25313536    -0.02700
C876        C  0.97954425  0.27824907  0.25026395     0.07000
C877        C  0.97269538  0.24482512  0.23640232    -0.02800
C878        C  0.00057966  0.22129846  0.23145402    -0.02800
C879        C  0.03529981  0.23200135  0.23901126     0.07100
C880        C  0.04237686  0.26848201  0.24519349    -0.03000
Br881      Br  0.08939907  0.28937642  0.24327421    -0.01500
Br882      Br  0.02400203  0.33716638  0.27099768    -0.01600
Br883      Br  0.99080859  0.17535442  0.21284674    -0.01600
Br884      Br  0.92539631  0.23109381  0.22338502    -0.01600
C885        C  0.27833849  0.25037950  0.28219251    -0.02700
C886        C  0.27156440  0.27489291  0.25643676     0.07000
C887        C  0.24153251  0.26950864  0.23733263    -0.02800
C888        C  0.22047597  0.23868473  0.24180836    -0.02800
C889        C  0.22911220  0.21234521  0.26600122     0.07100
C890        C  0.25842627  0.21885488  0.28598026    -0.03000
Br891      Br  0.27497673  0.18227064  0.31547581    -0.01500
Br892      Br  0.31709634  0.25814473  0.31151761    -0.01600
Br893      Br  0.18135415  0.23384190  0.21232911    -0.01600
Br894      Br  0.23123520  0.30307123  0.20283992    -0.01600
C895        C  0.03583186  0.24883890  0.01490297    -0.02700
C896        C  0.02396374  0.21345137  0.01722653     0.07000
C897        C  0.98871033  0.20680062  0.02746444    -0.02800
C898        C  0.96325071  0.23360341  0.02459015    -0.02800
C899        C  0.97463932  0.26842611  0.01770376     0.07100
C900        C  0.01128811  0.27611183  0.01918985    -0.03000
Br901      Br  0.02780418  0.32271515  0.03137177    -0.01500
Br902      Br  0.08392452  0.26132799  0.00367305    -0.01600
Br903      Br  0.91390321  0.22137921  0.02964247    -0.01600
Br904      Br  0.97565574  0.16232480  0.04786708    -0.01600
C905        C  0.10824735  0.09820215  0.11365284    -0.02700
C906        C  0.10832220  0.12849678  0.09346924     0.07000
C907        C  0.11103773  0.16259385  0.10647531    -0.02800
C908        C  0.11194361  0.16668587  0.13986888    -0.02800
C909        C  0.11444665  0.13641306  0.16030812     0.07100
C910        C  0.11325347  0.10204105  0.14702715    -0.03000
Br911      Br  0.11915528  0.06024868  0.17391804    -0.01500
Br912      Br  0.09981863  0.05182093  0.09580947    -0.01600
Br913      Br  0.10480791  0.21388133  0.15685243    -0.01600
Br914      Br  0.11098825  0.20410364  0.07858385    -0.01600
C915        C  0.03111132  0.74758772  0.03434982    -0.02700
C916        C  0.02301332  0.71744513  0.01636629     0.07000
C917        C  0.99169318  0.71569508  0.99791502    -0.02800
C918        C  0.96738664  0.74358987  0.99872656    -0.02800
C919        C  0.97456506  0.77349394  0.01772688     0.07100
C920        C  0.00780843  0.77639883  0.03380595    -0.03000
Br921      Br  0.02402107  0.81965104  0.05369839    -0.01500
Br922      Br  0.07281463  0.74841478  0.06161843    -0.01600
Br923      Br  0.92657399  0.74221457  0.97060434    -0.01600
Br924      Br  0.98225341  0.67527073  0.97075926    -0.01600
C925        C  0.86345360  0.82305833  0.90691415    -0.02700
C926        C  0.88295124  0.85145856  0.92025684     0.07000
C927        C  0.89468567  0.87919494  0.89958729    -0.02800
C928        C  0.89198408  0.87603226  0.86581258    -0.02800
C929        C  0.87487096  0.84605786  0.85219097     0.07100
C930        C  0.85808797  0.82139236  0.87332236    -0.03000
Br931      Br  0.82492648  0.78672113  0.85724370    -0.01500
Br932      Br  0.84467470  0.78505440  0.93381598    -0.01600
Br933      Br  0.91290942  0.91339359  0.83945370    -0.01600
Br934      Br  0.91213670  0.92322990  0.91727183    -0.01600
C935        C  0.01984992  0.97963855  0.98777653    -0.02700
C936        C  0.02415967  0.01267791  0.00260588     0.07000
C937        C  0.99613754  0.02531840  0.02281411    -0.02800
C938        C  0.96447443  0.00572348  0.02702698    -0.02800
C939        C  0.96031792  0.97245593  0.01256823     0.07100
C940        C  0.98858594  0.95958583  0.99271722    -0.03000
Br941      Br  0.98742887  0.91367358  0.97252495    -0.01500
Br942      Br  0.05817875  0.96035478  0.96227827    -0.01600
Br943      Br  0.92567595  0.02563786  0.05144106    -0.01600
Br944      Br  0.99901291  0.06973808  0.04552582    -0.01600
C945        C  0.66865574  0.98471972  0.28798763    -0.02700
C946        C  0.66464167  0.95706551  0.26566154     0.07000
C947        C  0.66674301  0.96550388  0.23232249    -0.02800
C948        C  0.66691058  0.00136670  0.22149370    -0.02800
C949        C  0.66677871  0.02919623  0.24402019     0.07100
C950        C  0.67110161  0.02042125  0.27708935    -0.03000
Br951      Br  0.68023212  0.05784196  0.30731636    -0.01500
Br952      Br  0.66768522  0.97396250  0.33352589    -0.01600
Br953      Br  0.66415816  0.01215877  0.17596339    -0.01600
Br954      Br  0.66856916  0.92775775  0.20142530    -0.01600
C955        C  0.50730790  0.90911658  0.38708728    -0.02700
C956        C  0.50366945  0.88244076  0.41117603     0.07000
C957        C  0.52950093  0.85516759  0.41277682    -0.02800
C958        C  0.55650566  0.85301945  0.38916847    -0.02800
C959        C  0.55947416  0.87918243  0.36463337     0.07100
C960        C  0.53547630  0.90789524  0.36454749    -0.03000
Br961      Br  0.54209682  0.94618061  0.33379624    -0.01500
Br962      Br  0.47420727  0.94800931  0.38526477    -0.01600
Br963      Br  0.58764257  0.81248708  0.38917991    -0.01600
Br964      Br  0.52734967  0.81921958  0.44621656    -0.01600
C965        C  0.67017316  0.70172584  0.38964710    -0.02700
C966        C  0.63870853  0.68137864  0.39078215     0.07000
C967        C  0.61145541  0.68925825  0.36860806    -0.02800
C968        C  0.61425726  0.71886663  0.34755389    -0.02800
C969        C  0.64533808  0.73981274  0.34681266     0.07100
C970        C  0.67378342  0.73027230  0.36726212    -0.03000
Br971      Br  0.71776425  0.75612518  0.36429580    -0.01500
Br972      Br  0.70833496  0.69018204  0.41883254    -0.01600
Br973      Br  0.57387847  0.73221178  0.32187865    -0.01600
Br974      Br  0.56944060  0.66020261  0.36772631    -0.01600
C975        C  0.83031379  0.50334394  0.22411949    -0.02700
C976        C  0.83180166  0.52994377  0.24776976     0.07000
C977        C  0.83102921  0.51946350  0.28068909    -0.02800
C978        C  0.83297770  0.48317412  0.28977129    -0.02800
C979        C  0.83405457  0.45664352  0.26608599     0.07100
C980        C  0.83121188  0.46693050  0.23321920    -0.03000
Br981      Br  0.83193051  0.43102809  0.20044636    -0.01500
Br982      Br  0.83074847  0.51699580  0.17914974    -0.01600
Br983      Br  0.83896429  0.46996122  0.33457587    -0.01600
Br984      Br  0.82959970  0.55512294  0.31360501    -0.01600
C985        C  0.93942657  0.62188703  0.12734684    -0.02700
C986        C  0.94170353  0.60353532  0.15713965     0.07000
C987        C  0.97110942  0.58106388  0.16289718    -0.02800
C988        C  0.99911742  0.57914071  0.14039474    -0.02800
C989        C  0.99670605  0.59704869  0.11018236     0.07100
C990        C  0.96583861  0.61747887  0.10353927    -0.03000
Br991      Br  0.95964131  0.64180444  0.06266423    -0.01500
Br992      Br  0.90216138  0.65620318  0.12008675    -0.01600
Br993      Br  0.04047712  0.55142939  0.15177631    -0.01600
Br994      Br  0.97272619  0.55167589  0.20150917    -0.01600
C995        C  0.82659036  0.74963556  0.14308715    -0.02700
C996        C  0.85052417  0.74915047  0.16932431     0.07000
C997        C  0.87054945  0.78040769  0.17530917    -0.02800
C998        C  0.86913268  0.80980471  0.15361304    -0.02800
C999        C  0.84979257  0.80744285  0.12460433     0.07100
C1000       C  0.82685420  0.77814417  0.12054784    -0.03000
Br1001     Br  0.79473393  0.77798667  0.08429448    -0.01500
Br1002     Br  0.79150256  0.71265282  0.13920370    -0.01600
Br1003     Br  0.89340197  0.85335956  0.16379839    -0.01600
Br1004     Br  0.90188041  0.78281039  0.21204168    -0.01600
C1005       C  0.78428610  0.74630058  0.27075587    -0.02700
C1006       C  0.77169402  0.71535269  0.25461570     0.07000
C1007       C  0.73826885  0.71633810  0.23989370    -0.02800
C1008       C  0.71761433  0.74739608  0.24114806    -0.02800
C1009       C  0.72963715  0.77774326  0.25849398     0.07100
C1010       C  0.76339467  0.77712633  0.27240105    -0.03000
Br1011     Br  0.78227921  0.81995383  0.29137378    -0.01500
Br1012     Br  0.83066336  0.74901163  0.29015356    -0.01600
Br1013     Br  0.67286892  0.74636566  0.21856906    -0.01600
Br1014     Br  0.71957406  0.67414567  0.21962857    -0.01600
C1015       C  0.25538866  0.07649126  0.03292470    -0.02700
C1016       C  0.28337026  0.08045782  0.01051915     0.07000
C1017       C  0.27434500  0.07989751  0.97720260    -0.02800
C1018       C  0.23832204  0.07932980  0.96678446    -0.02800
C1019       C  0.21023640  0.07862816  0.98930280     0.07100
C1020       C  0.21941026  0.07522318  0.02241519    -0.03000
Br1021     Br  0.18234486  0.06931580  0.05369120    -0.01500
Br1022     Br  0.26629760  0.07509632  0.07832529    -0.01600
Br1023     Br  0.22713642  0.08064749  0.92141871    -0.01600
Br1024     Br  0.31147165  0.07982419  0.94542331    -0.01600
C1025       C  0.40197742  0.20583652  0.11395904    -0.02700
C1026       C  0.37110613  0.18648233  0.10587967     0.07000
C1027       C  0.33914594  0.19461448  0.12174384    -0.02800
C1028       C  0.33779794  0.22224389  0.14475442    -0.02800
C1029       C  0.36857124  0.24201395  0.15254731     0.07100
C1030       C  0.40083060  0.23309163  0.13724483    -0.03000
Br1031     Br  0.44353649  0.25920736  0.14701067    -0.01500
Br1032     Br  0.44636640  0.19462297  0.09321747    -0.01600
Br1033     Br  0.29377150  0.23190033  0.16647077    -0.01600
Br1034     Br  0.29693180  0.16842914  0.11111768    -0.01600
C1035       C  0.56191395  0.10784675  0.11250092    -0.02700
C1036       C  0.55791326  0.09511691  0.14463383     0.07000
C1037       C  0.52516195  0.07775050  0.15261766    -0.02800
C1038       C  0.49651529  0.07694055  0.13044443    -0.02800
C1039       C  0.49982129  0.09214624  0.09921789     0.07100
C1040       C  0.53293905  0.10759535  0.09071732    -0.03000
Br1041     Br  0.53845065  0.13270983  0.05038171    -0.01500
Br1042     Br  0.60727290  0.12472122  0.09674555    -0.01600
Br1043     Br  0.45250963  0.05456650  0.14365368    -0.01600
Br1044     Br  0.51832199  0.05249832  0.19330947    -0.01600
C1045       C  0.71509302  0.90712341  0.02580527    -0.02700
C1046       C  0.70834377  0.90283966  0.99244154     0.07000
C1047       C  0.73761151  0.90289396  0.97127085    -0.02800
C1048       C  0.77277289  0.90342971  0.98345427    -0.02800
C1049       C  0.77939490  0.90245323  0.01707838     0.07100
C1050       C  0.75023600  0.90594963  0.03813999    -0.03000
Br1051     Br  0.75840691  0.90692579  0.08402093    -0.01500
Br1052     Br  0.67587686  0.91493223  0.05451588    -0.01600
Br1053     Br  0.81215389  0.90519292  0.95400989    -0.01600
Br1054     Br  0.72941169  0.90088679  0.92552680    -0.01600
C1055       C  0.65808351  0.77021074  0.84632047    -0.02700
C1056       C  0.63590529  0.73967772  0.84757358     0.07000
C1057       C  0.60960060  0.73808048  0.87201923    -0.02800
C1058       C  0.60411834  0.76698488  0.89266360    -0.02800
C1059       C  0.62857218  0.79523696  0.89393670     0.07100
C1060       C  0.65522099  0.79716341  0.87002825    -0.03000
Br1061     Br  0.68810656  0.83625328  0.86984680    -0.01500
Br1062     Br  0.69427782  0.77440439  0.81379765    -0.01600
Br1063     Br  0.56003052  0.77027989  0.91619613    -0.01600
Br1064     Br  0.57992592  0.69682875  0.87819265    -0.01600
C1065       C  0.63809564  0.84297569  0.14309798    -0.02700
C1066       C  0.60929597  0.85132304  0.16298834     0.07000
C1067       C  0.57658442  0.86067245  0.14931035    -0.02800
C1068       C  0.57286960  0.86333816  0.11560980    -0.02800
C1069       C  0.60111393  0.85271717  0.09492820     0.07100
C1070       C  0.63392679  0.84219465  0.10936426    -0.03000
Br1071     Br  0.67370666  0.82423978  0.08484139    -0.01500
Br1072     Br  0.68358499  0.83243597  0.16249304    -0.01600
Br1073     Br  0.52853174  0.88260260  0.09964651    -0.01600
Br1074     Br  0.53565154  0.86638729  0.17694334    -0.01600
C1075       C  0.49665724  0.89804752  0.87560179    -0.02700
C1076       C  0.49363055  0.88106714  0.90624422     0.07000
C1077       C  0.46073613  0.86451295  0.91419784    -0.02800
C1078       C  0.43227728  0.86403962  0.89173317    -0.02800
C1079       C  0.43573067  0.88071131  0.86117631     0.07100
C1080       C  0.46747813  0.89942164  0.85427044    -0.03000
Br1081     Br  0.47073456  0.92870862  0.81562070    -0.01500
Br1082     Br  0.54078357  0.91921164  0.86130912    -0.01600
Br1083     Br  0.38922549  0.83882825  0.90248878    -0.01600
Br1084     Br  0.45499254  0.83890986  0.95457047    -0.01600
C1085       C  0.51783252  0.97801491  0.02820474    -0.02700
C1086       C  0.52715617  0.96934603  0.99603370     0.07000
C1087       C  0.50211344  0.97669164  0.97144592    -0.02800
C1088       C  0.46795028  0.98924510  0.97923306    -0.02800
C1089       C  0.45940018  0.99962498  0.01095506     0.07100
C1090       C  0.48393720  0.99163501  0.03564874    -0.03000
Br1091     Br  0.47046538  0.99619683  0.08008576    -0.01500
Br1092     Br  0.55264596  0.97396593  0.06228430    -0.01600
Br1093     Br  0.43112599  0.98911426  0.94695405    -0.01600
Br1094     Br  0.51451452  0.97283740  0.92665201    -0.01600
C1095       C  0.16880303  0.26025975  0.36247085    -0.02700
C1096       C  0.14026851  0.25097527  0.34224998     0.07000
C1097       C  0.10839674  0.27040040  0.34467730    -0.02800
C1098       C  0.10560343  0.29943725  0.36600055    -0.02800
C1099       C  0.13372073  0.30778161  0.38709408     0.07100
C1100       C  0.16537319  0.28798281  0.38504662    -0.03000
Br1101     Br  0.20345545  0.29763172  0.41474055    -0.01500
Br1102     Br  0.21183122  0.23315193  0.36098851    -0.01600
Br1103     Br  0.06224390  0.32633702  0.36784016    -0.01600
Br1104     Br  0.06685639  0.25393754  0.32258284    -0.01600
C1105       C  0.25306564  0.40477737  0.53462024    -0.02700
C1106       C  0.28037619  0.41083636  0.51216356     0.07000
C1107       C  0.27107311  0.41891675  0.47983782    -0.02800
C1108       C  0.23539125  0.41584692  0.46922765    -0.02800
C1109       C  0.20832181  0.40645728  0.49128967     0.07100
C1110       C  0.21735962  0.40348368  0.52439491    -0.03000
Br1111     Br  0.18094061  0.39692875  0.55609710    -0.01500
Br1112     Br  0.26513077  0.39525841  0.57915529    -0.01600
Br1113     Br  0.22408570  0.42158505  0.42417033    -0.01600
Br1114     Br  0.30774554  0.43348651  0.45021752    -0.01600
C1115       C  0.93734097  0.36167823  0.39221000    -0.02700
C1116       C  0.93762030  0.38472322  0.36501346     0.07000
C1117       C  0.96375953  0.41162871  0.36333866    -0.02800
C1118       C  0.99062799  0.41369497  0.38700687    -0.02800
C1119       C  0.99150295  0.38930999  0.41316369     0.07100
C1120       C  0.96331259  0.36477558  0.41666186    -0.03000
Br1121     Br  0.96044418  0.33425063  0.45429048    -0.01500
Br1122     Br  0.90414153  0.32299243  0.39460763    -0.01600
Br1123     Br  0.02554278  0.45113082  0.38425038    -0.01600
Br1124     Br  0.96289689  0.44588446  0.32832893    -0.01600
C1125       C  0.71674614  0.57093161  0.52350830    -0.02700
C1126       C  0.70971760  0.57448028  0.49003881     0.07000
C1127       C  0.73863585  0.57512570  0.46852277    -0.02800
C1128       C  0.77390149  0.57562163  0.48036992    -0.02800
C1129       C  0.78082311  0.57548269  0.51398564     0.07100
C1130       C  0.75197988  0.57158478  0.53537697    -0.03000
Br1131     Br  0.76072227  0.57078469  0.58123615    -0.01500
Br1132     Br  0.67778892  0.56737731  0.55341668    -0.01600
Br1133     Br  0.81281551  0.57878919  0.45042738    -0.01600
Br1134     Br  0.72957140  0.57853812  0.42280849    -0.01600
C1135       C  0.82249464  0.70727040  0.61575139    -0.02700
C1136       C  0.84059987  0.67493204  0.62177696     0.07000
C1137       C  0.85476926  0.66922647  0.65290289    -0.02800
C1138       C  0.85761294  0.69784830  0.67488149    -0.02800
C1139       C  0.84378297  0.73206284  0.66691554     0.07100
C1140       C  0.82392614  0.73545306  0.63804500    -0.03000
Br1141     Br  0.79687215  0.77799894  0.62933053    -0.01500
Br1142     Br  0.79390853  0.71217285  0.57722783    -0.01600
Br1143     Br  0.88296900  0.68989082  0.71472942    -0.01600
Br1144     Br  0.86940900  0.62206558  0.66579827    -0.01600
C1145       C  0.86818415  0.65837802  0.40755289    -0.02700
C1146       C  0.89378493  0.63586325  0.42208600     0.07000
C1147       C  0.91503755  0.61403562  0.40227903    -0.02800
C1148       C  0.91196389  0.61621711  0.36852884    -0.02800
C1149       C  0.88513836  0.63721182  0.35438726     0.07100
C1150       C  0.86265593  0.65748265  0.37411021    -0.03000
Br1151     Br  0.82330939  0.68350732  0.35570237    -0.01500
Br1152     Br  0.84213296  0.69299541  0.43232823    -0.01600
Br1153     Br  0.94683695  0.59283439  0.34191909    -0.01600
Br1154     Br  0.94754412  0.57960943  0.42038208    -0.01600
C1155       C  0.98533675  0.62689192  0.63495847    -0.02700
C1156       C  0.98558352  0.59779877  0.61378752     0.07000
C1157       C  0.01376090  0.57317321  0.61558137    -0.02800
C1158       C  0.04182506  0.57805451  0.63775450    -0.02800
C1159       C  0.04234645  0.60805495  0.65787629     0.07100
C1160       C  0.01404133  0.63265686  0.65596642    -0.03000
Br1161     Br  0.01521583  0.67584416  0.68088818    -0.01500
Br1162     Br  0.94646794  0.66027419  0.63444678    -0.01600
Br1163     Br  0.07818060  0.54243409  0.64188164    -0.01600
Br1164     Br  0.01232192  0.53104565  0.58960580    -0.01600
C1165       C  0.96550719  0.47870414  0.52546146    -0.02700
C1166       C  0.96598950  0.51459746  0.51579035     0.07000
C1167       C  0.99735082  0.52800858  0.50042211    -0.02800
C1168       C  0.02607820  0.50539925  0.49297501    -0.02800
C1169       C  0.02577858  0.46964831  0.50300470     0.07100
C1170       C  0.99532364  0.45668164  0.52008745    -0.03000
Br1171     Br  0.99253049  0.40831067  0.53608943    -0.01500
Br1172     Br  0.92321307  0.45911805  0.54499990    -0.01600
Br1173     Br  0.06700538  0.52412418  0.47040993    -0.01600
Br1174     Br  0.00407539  0.57818650  0.49198781    -0.01600
C1175       C  0.32911278  0.02207560  0.77594585    -0.02700
C1176       C  0.32963809  0.03038016  0.74251050     0.07000
C1177       C  0.32683848  0.00205689  0.72063443    -0.02800
C1178       C  0.32647502  0.96622684  0.73187700    -0.02800
C1179       C  0.33004497  0.95790096  0.76518670     0.07100
C1180       C  0.33032671  0.98628249  0.78715293    -0.03000
Br1181     Br  0.33583886  0.97613308  0.83255412    -0.01500
Br1182     Br  0.32767166  0.06011013  0.80655794    -0.01600
Br1183     Br  0.32307445  0.92828825  0.70126869    -0.01600
Br1184     Br  0.32608481  0.01238606  0.67502771    -0.01600
C1185       C  0.49367707  0.12871337  0.62112963    -0.02700
C1186       C  0.49368669  0.10103914  0.59824371     0.07000
C1187       C  0.46419275  0.07761562  0.59798642    -0.02800
C1188       C  0.43659183  0.08095661  0.62115540    -0.02800
C1189       C  0.43625749  0.10985590  0.64253314     0.07100
C1190       C  0.46352664  0.13527417  0.64003208    -0.03000
Br1191     Br  0.45776250  0.18117773  0.65991278    -0.01500
Br1192     Br  0.53491385  0.15742591  0.62867641    -0.01600
Br1193     Br  0.40035613  0.04522450  0.62458834    -0.01600
Br1194     Br  0.46300920  0.03875937  0.56830554    -0.01600
C1195       C  0.41282506  0.11131872  0.85430167    -0.02700
C1196       C  0.39199665  0.14000205  0.84236627     0.07000
C1197       C  0.37850750  0.16499999  0.86459896    -0.02800
C1198       C  0.38147041  0.15868125  0.89793575    -0.02800
C1199       C  0.40004001  0.12872284  0.90959713     0.07100
C1200       C  0.41706795  0.10605229  0.88773416    -0.03000
Br1201     Br  0.44678502  0.06784935  0.90325115    -0.01500
Br1202     Br  0.43924977  0.08086251  0.82559557    -0.01600
Br1203     Br  0.36209368  0.19311210  0.92763679    -0.01600
Br1204     Br  0.35822356  0.20973601  0.85100458    -0.01600
C1205       C  0.33324337  0.24161892  0.62322753    -0.02700
C1206       C  0.35148534  0.24465175  0.65302024     0.07000
C1207       C  0.37016329  0.27666836  0.65906246    -0.02800
C1208       C  0.37106734  0.30450929  0.63571571    -0.02800
C1209       C  0.35345561  0.30110474  0.60575184     0.07100
C1210       C  0.33345419  0.26986741  0.60038045    -0.03000
Br1211     Br  0.30469553  0.26603686  0.56192372    -0.01500
Br1212     Br  0.30790403  0.19866216  0.61257909    -0.01600
Br1213     Br  0.39858969  0.34637439  0.64459002    -0.01600
Br1214     Br  0.39808108  0.28170187  0.69790762    -0.01600
C1215       C  0.15056564  0.47950935  0.78509853    -0.02700
C1216       C  0.15536646  0.45432086  0.76063324     0.07000
C1217       C  0.16463688  0.46642571  0.72932867    -0.02800
C1218       C  0.16311520  0.50314162  0.72133786    -0.02800
C1219       C  0.15489728  0.52819521  0.74530662     0.07100
C1220       C  0.15184957  0.51612679  0.77765216    -0.03000
Br1221     Br  0.14990002  0.54976387  0.81215218    -0.01500
Br1222     Br  0.13887805  0.46403566  0.82842225    -0.01600
Br1223     Br  0.17004867  0.51870807  0.67737352    -0.01600
Br1224     Br  0.18098954  0.43268936  0.69812998    -0.01600
C1225       C  0.03066846  0.36223904  0.91105288    -0.02700
C1226       C  0.99895997  0.38105636  0.90396511     0.07000
C1227       C  0.99684057  0.39914643  0.87390286    -0.02800
C1228       C  0.02617281  0.39987134  0.85251835    -0.02800
C1229       C  0.05721494  0.37933537  0.85886591     0.07100
C1230       C  0.05949062  0.36160829  0.88911685    -0.03000
Br1231     Br  0.10173722  0.33566261  0.90138862    -0.01500
Br1232     Br  0.03376394  0.33295894  0.94915718    -0.01600
Br1233     Br  0.02399351  0.43200873  0.81568991    -0.01600
Br1234     Br  0.95357373  0.42283596  0.86094133    -0.01600
C1235       C  0.12521413  0.30849188  0.63923958    -0.02700
C1236       C  0.11910809  0.33813322  0.65914150     0.07000
C1237       C  0.10914362  0.37110031  0.64501424    -0.02800
C1238       C  0.10610229  0.37441913  0.61142923    -0.02800
C1239       C  0.11179556  0.34475440  0.59180945     0.07100
C1240       C  0.12262225  0.31213919  0.60557466    -0.03000
Br1241     Br  0.13191627  0.27158913  0.57863811    -0.01500
Br1242     Br  0.13128661  0.26138121  0.65764791    -0.01600
Br1243     Br  0.09517841  0.42020288  0.59219707    -0.01600
Br1244     Br  0.09710986  0.41180531  0.67087509    -0.01600
C1245       C  0.16272924  0.22440499  0.86391202    -0.02700
C1246       C  0.13288570  0.23715391  0.84668400     0.07000
C1247       C  0.09942868  0.22185946  0.85354720    -0.02800
C1248       C  0.09620833  0.19386187  0.87640924    -0.02800
C1249       C  0.12625030  0.18080718  0.89290412     0.07100
C1250       C  0.15949183  0.19622746  0.88653123    -0.03000
Br1251     Br  0.20049468  0.17935648  0.90993238    -0.01500
Br1252     Br  0.20815115  0.24604055  0.85783789    -0.01600
Br1253     Br  0.05016596  0.17455741  0.88656238    -0.01600
Br1254     Br  0.05716339  0.24210139  0.83492683    -0.01600
C1255       C  0.26202980  0.27072858  0.78031686    -0.02700
C1256       C  0.24394645  0.28862550  0.75581414     0.07000
C1257       C  0.24524532  0.27418367  0.72445483    -0.02800
C1258       C  0.25749629  0.23911998  0.71935758    -0.02800
C1259       C  0.27118475  0.21870271  0.74548901     0.07100
C1260       C  0.27161998  0.23485921  0.77646219    -0.03000
Br1261     Br  0.27815263  0.20673397  0.81503275    -0.01500
Br1262     Br  0.27192301  0.29598256  0.81938769    -0.01600
Br1263     Br  0.25022903  0.21850858  0.67760228    -0.01600
Br1264     Br  0.22627954  0.30207923  0.68918231    -0.01600
C1265       C  0.10964994  0.77116408  0.66575948    -0.02700
C1266       C  0.13599927  0.74469673  0.66365960     0.07000
C1267       C  0.16219213  0.74811643  0.63943570    -0.02800
C1268       C  0.16154988  0.77720229  0.61741897    -0.02800
C1269       C  0.13434881  0.80288301  0.61879077     0.07100
C1270       C  0.10897750  0.80008763  0.64370407    -0.03000
Br1271     Br  0.07159453  0.83453375  0.64656480    -0.01500
Br1272     Br  0.07188626  0.76595961  0.69662400    -0.01600
Br1273     Br  0.19833904  0.78248612  0.58540684    -0.01600
Br1274     Br  0.19874486  0.71266483  0.63600473    -0.01600
C1275       C  0.24058527  0.90463883  0.53721079    -0.02700
C1276       C  0.21265212  0.89832113  0.51511752     0.07000
C1277       C  0.22228407  0.89379356  0.48222430    -0.02800
C1278       C  0.25801890  0.89607324  0.47167810    -0.02800
C1279       C  0.28591535  0.90003149  0.49384960     0.07100
C1280       C  0.27676582  0.90478958  0.52679900    -0.03000
Br1281     Br  0.31417216  0.90902985  0.55813210    -0.01500
Br1282     Br  0.22962674  0.90849510  0.58245574    -0.01600
Br1283     Br  0.26948238  0.89105546  0.42653501    -0.01600
Br1284     Br  0.18733502  0.88020129  0.45130999    -0.01600
C1285       C  0.99382061  0.72221563  0.54511075    -0.02700
C1286       C  0.96279869  0.72166355  0.52567570     0.07000
C1287       C  0.95583781  0.75018981  0.50415826    -0.02800
C1288       C  0.98106833  0.77720509  0.50027223    -0.02800
C1289       C  0.01249274  0.77649170  0.51875920     0.07100
C1290       C  0.01796288  0.75008419  0.54221493    -0.03000
Br1291     Br  0.05735646  0.75321033  0.57205923    -0.01500
Br1292     Br  0.00509823  0.68507183  0.57577968    -0.01600
Br1293     Br  0.97281121  0.81460859  0.46866475    -0.01600
Br1294     Br  0.91323777  0.75213467  0.47821245    -0.01600
C1295       C  0.00052960  0.90354425  0.63876592    -0.02700
C1296       C  0.99711816  0.89037896  0.60692145     0.07000
C1297       C  0.96510065  0.87220209  0.59911970    -0.02800
C1298       C  0.93912411  0.86468952  0.62308829    -0.02800
C1299       C  0.94289248  0.87763006  0.65478538     0.07100
C1300       C  0.97315339  0.89848733  0.66182443    -0.03000
Br1301     Br  0.97645533  0.92234727  0.70282242    -0.01500
Br1302     Br  0.04231805  0.92948903  0.65163840    -0.01600
Br1303     Br  0.89968126  0.83401407  0.61277395    -0.01600
Br1304     Br  0.95598663  0.85590830  0.55592952    -0.01600
C1305       C  0.83594121  0.24698345  0.38186732    -0.02700
C1306       C  0.85208045  0.24134241  0.35138712     0.07000
C1307       C  0.86404356  0.20639868  0.34428680    -0.02800
C1308       C  0.86038085  0.17844736  0.36721062    -0.02800
C1309       C  0.85033137  0.18592650  0.39922643     0.07100
C1310       C  0.83585245  0.21984965  0.40566083    -0.03000
Br1311     Br  0.81350311  0.22900425  0.44685348    -0.01500
Br1312     Br  0.81256039  0.29131136  0.39190977    -0.01600
Br1313     Br  0.86807795  0.13001409  0.35387661    -0.01600
Br1314     Br  0.88952044  0.19628043  0.30495624    -0.01600
C1315       C  0.73457912  0.07596848  0.53547732    -0.02700
C1316       C  0.70797657  0.08588048  0.51312248     0.07000
C1317       C  0.71772022  0.09011327  0.48029856    -0.02800
C1318       C  0.75366980  0.08977433  0.47082516    -0.02800
C1319       C  0.78051514  0.08255702  0.49355251     0.07100
C1320       C  0.77056287  0.07376766  0.52557085    -0.03000
Br1321     Br  0.80685545  0.06084998  0.55617380    -0.01500
Br1322     Br  0.72223348  0.06811598  0.58007070    -0.01600
Br1323     Br  0.76651535  0.10264302  0.42712080    -0.01600
Br1324     Br  0.68179119  0.09613580  0.44785852    -0.01600
C1325       C  0.98048652  0.23319273  0.53235316    -0.02700
C1326       C  0.96309598  0.22447080  0.50357620     0.07000
C1327       C  0.97575386  0.23690724  0.47375614    -0.02800
C1328       C  0.00808393  0.25471813  0.47216109    -0.02800
C1329       C  0.02541269  0.26393726  0.50080303     0.07100
C1330       C  0.01123941  0.25393459  0.53102271    -0.03000
Br1331     Br  0.03314534  0.26977683  0.57036665    -0.01500
Br1332     Br  0.96206660  0.21642573  0.57321714    -0.01600
Br1333     Br  0.02819791  0.26767949  0.43091050    -0.01600
Br1334     Br  0.94761208  0.23071445  0.43558870    -0.01600
C1335       C  0.01559827  0.13824581  0.36032680    -0.02700
C1336       C  0.04855948  0.12006909  0.36222987     0.07000
C1337       C  0.05594142  0.10030269  0.39084069    -0.02800
C1338       C  0.02977559  0.09611251  0.41525516    -0.02800
C1339       C  0.99524177  0.11044293  0.41113499     0.07100
C1340       C  0.98947635  0.13321959  0.38430450    -0.03000
Br1341     Br  0.94742986  0.16184825  0.38201502    -0.01500
Br1342     Br  0.00610901  0.17320019  0.32651480    -0.01600
Br1343     Br  0.04280926  0.07196853  0.45482076    -0.01600
Br1344     Br  0.10184668  0.07878727  0.39763541    -0.01600
C1345       C  0.97451188  0.00353614  0.53437562    -0.02700
C1346       C  0.96305865  0.01173634  0.50254637     0.07000
C1347       C  0.98482279  0.00109510  0.47666635    -0.02800
C1348       C  0.01853418  0.98582920  0.48261600    -0.02800
C1349       C  0.03103326  0.97922878  0.51466267     0.07100
C1350       C  0.00861588  0.98925389  0.54043080    -0.03000
Br1351     Br  0.02421560  0.98552524  0.58451800    -0.01500
Br1352     Br  0.94212631  0.00967596  0.57011548    -0.01600
Br1353     Br  0.04845988  0.97690006  0.44572974    -0.01600
Br1354     Br  0.96912378  0.00719943  0.43245418    -0.01600
C1355       C  0.33802417  0.51801105  0.22674126    -0.02700
C1356       C  0.34340348  0.52955294  0.25875016     0.07000
C1357       C  0.34808027  0.50367931  0.28327853    -0.02800
C1358       C  0.34946458  0.46712949  0.27561346    -0.02800
C1359       C  0.34506942  0.45560161  0.24336297     0.07100
C1360       C  0.33805694  0.48139341  0.21919531    -0.03000
Br1361     Br  0.33302669  0.46702701  0.17485558    -0.01500
Br1362     Br  0.33386497  0.55262532  0.19251116    -0.01600
Br1363     Br  0.36014866  0.43312306  0.30934254    -0.01600
Br1364     Br  0.35726745  0.51862622  0.32694557    -0.01600
C1365       C  0.43529827  0.61856002  0.38851716    -0.02700
C1366       C  0.43677422  0.60124058  0.35841669     0.07000
C1367       C  0.46605910  0.57859165  0.35255566    -0.02800
C1368       C  0.49594675  0.57850564  0.37305269    -0.02800
C1369       C  0.49483349  0.59577784  0.40318885     0.07100
C1370       C  0.46331344  0.61456911  0.41122164    -0.03000
Br1371     Br  0.45853298  0.63745411  0.45244901    -0.01500
Br1372     Br  0.39582131  0.64908347  0.39871154    -0.01600
Br1373     Br  0.53850573  0.55536858  0.35822299    -0.01600
Br1374     Br  0.46451085  0.54505341  0.31749226    -0.01600
C1375       C  0.50927671  0.70923326  0.23907901    -0.02700
C1376       C  0.47449826  0.71977622  0.24567669     0.07000
C1377       C  0.46622078  0.75640070  0.24853337    -0.02800
C1378       C  0.49352571  0.78096874  0.25250701    -0.02800
C1379       C  0.52858471  0.77013944  0.24703797     0.07100
C1380       C  0.53552370  0.73514429  0.23648044    -0.03000
Br1381     Br  0.57934029  0.72304093  0.21510293    -0.01500
Br1382     Br  0.52092769  0.66005453  0.23130843    -0.01600
Br1383     Br  0.48199257  0.82821564  0.26711228    -0.01600
Br1384     Br  0.41825567  0.77446587  0.24601752    -0.01600
C1385       C  0.39594292  0.76653992  0.34951952    -0.02700
C1386       C  0.36497464  0.74618536  0.34401723     0.16600
C1387       C  0.33438984  0.75389270  0.36270390    -0.02800
C1388       C  0.33585463  0.77907514  0.38781977    -0.02800
C1389       C  0.36640895  0.79992328  0.39247498     0.07100
C1390       C  0.39580983  0.79450144  0.37204264    -0.03000
Br1391     Br  0.43687657  0.82448781  0.37538301    -0.01500
Br1392     Br  0.44029919  0.75392869  0.32953253    -0.01600
Br1393     Br  0.29590353  0.78494387  0.41631955    -0.01600
Br1394     Br  0.28945240  0.73179934  0.35339780    -0.01600
C1395       C  0.16811142  0.01598901  0.25014603    -0.02700
C1396       C  0.14516853  0.02922629  0.27417317     0.07000
C1397       C  0.12103014  0.00540608  0.28868502    -0.02800
C1398       C  0.11754459  0.97006019  0.27785942    -0.02800
C1399       C  0.13987203  0.95631838  0.25297288     0.07100
C1400       C  0.16590879  0.97983057  0.23993604    -0.03000
Br1401     Br  0.19615940  0.96423519  0.20549429    -0.01500
Br1402     Br  0.20067420  0.04845771  0.22951451    -0.01600
Br1403     Br  0.07954703  0.94255431  0.29716526    -0.01600
Br1404     Br  0.09092048  0.02236066  0.32314977    -0.01600
C1405       C  0.04462086  0.90484246  0.13381725    -0.02700
C1406       C  0.04493016  0.87306751  0.15245198     0.07000
C1407       C  0.01917855  0.84675101  0.14591081    -0.02800
C1408       C  0.99218254  0.85300997  0.12300884    -0.02800
C1409       C  0.99088955  0.88531494  0.10535259     0.07100
C1410       C  0.01786464  0.91078785  0.11025779    -0.03000
Br1411     Br  0.01717843  0.95466074  0.08587551    -0.01500
Br1412     Br  0.07960749  0.94116859  0.14152111    -0.01600
Br1413     Br  0.95834296  0.81573215  0.11411210    -0.01600
Br1414     Br  0.02185608  0.80076624  0.16699460    -0.01600
C1415       C  0.03552463  0.71993371  0.27600601    -0.02700
C1416       C  0.02841843  0.75691635  0.27728842     0.07000
C1417       C  0.99473923  0.76820436  0.28769584    -0.02800
C1418       C  0.96731726  0.74343456  0.28878795    -0.02800
C1419       C  0.97282331  0.70935333  0.27605437     0.07100
C1420       C  0.00737954  0.69642120  0.27223150    -0.03000
Br1421     Br  0.01696582  0.64810867  0.25955611    -0.01500
Br1422     Br  0.08258467  0.70050307  0.28225107    -0.01600
Br1423     Br  0.92293168  0.75546702  0.30901010    -0.01600
Br1424     Br  0.98522656  0.81617355  0.30148829    -0.01600
C1425       C  0.11695218  0.87376423  0.36660624    -0.02700
C1426       C  0.10418556  0.84295273  0.35151675     0.07000
C1427       C  0.08625687  0.81670902  0.37006823    -0.02800
C1428       C  0.08135542  0.82146202  0.40329027    -0.02800
C1429       C  0.09263425  0.85304785  0.41777973     0.07100
C1430       C  0.10916541  0.87977453  0.39920014    -0.03000
Br1431     Br  0.11929910  0.92532440  0.41766719    -0.01500
Br1432     Br  0.14871953  0.90555887  0.34402092    -0.01600
Br1433     Br  0.05851280  0.78491982  0.42904895    -0.01600
Br1434     Br  0.06732003  0.77438541  0.35066346    -0.01600
C1435       C  0.16569119  0.73651690  0.13987452    -0.02700
C1436       C  0.13933394  0.74104366  0.16368997     0.07000
C1437       C  0.11198192  0.71536161  0.16587078    -0.02800
C1438       C  0.11057164  0.68635527  0.14442753    -0.02800
C1439       C  0.13664103  0.68209556  0.12036443     0.07100
C1440       C  0.16461561  0.70709195  0.11876517    -0.03000
Br1441     Br  0.20177837  0.70065194  0.08743644    -0.01500
Br1442     Br  0.20300646  0.77101714  0.13554661    -0.01600
Br1443     Br  0.07098050  0.65412940  0.14659741    -0.01600
Br1444     Br  0.07395661  0.72147786  0.19609241    -0.01600
C1445       C  0.26436491  0.73218099  0.22465535    -0.02700
C1446       C  0.26041482  0.70753005  0.25070953     0.07000
C1447       C  0.23286926  0.71317041  0.27261056    -0.02800
C1448       C  0.21250820  0.74480458  0.27089732    -0.02800
C1449       C  0.22047339  0.77232248  0.24748589     0.07100
C1450       C  0.24697029  0.76525873  0.22454908    -0.03000
Br1451     Br  0.26379075  0.80225588  0.19556437    -0.01500
Br1452     Br  0.29631325  0.72212399  0.18977738    -0.01600
Br1453     Br  0.17476735  0.74856841  0.30217066    -0.01600
Br1454     Br  0.22423930  0.67769869  0.30573348    -0.01600
C1455       C  0.24836118  0.58335579  0.96963373    -0.02700
C1456       C  0.27763046  0.57792762  0.99009522     0.07000
C1457       C  0.27115752  0.56644049  0.02217257    -0.02800
C1458       C  0.23634482  0.56775337  0.03536514    -0.02800
C1459       C  0.20723292  0.57718848  0.01558026     0.07100
C1460       C  0.21347536  0.58141680  0.98202325    -0.03000
Br1461     Br  0.17413604  0.58330616  0.95264995    -0.01500
Br1462     Br  0.25629908  0.59405840  0.92458986    -0.01600
Br1463     Br  0.22892211  0.55874222  0.08065082    -0.01600
Br1464     Br  0.30999395  0.54759341  0.04712990    -0.01600
C1465       C  0.32387945  0.73844470  0.87261484    -0.02700
C1466       C  0.34290886  0.73724899  0.84326752     0.07000
C1467       C  0.35929103  0.70456303  0.83481769    -0.02800
C1468       C  0.35938752  0.67521985  0.85669415    -0.02800
C1469       C  0.34495886  0.67862557  0.88790369     0.07100
C1470       C  0.32541954  0.70975338  0.89488861    -0.03000
Br1471     Br  0.29993706  0.71301961  0.93523799    -0.01500
Br1472     Br  0.29380802  0.77856151  0.88186647    -0.01600
Br1473     Br  0.37991602  0.63061061  0.84401411    -0.01600
Br1474     Br  0.38400058  0.69980108  0.79428279    -0.01600
C1475       C  0.46388535  0.73961318  0.01583176    -0.02700
C1476       C  0.47186825  0.70875551  0.99830944     0.07000
C1477       C  0.50711360  0.70305779  0.98738553    -0.02800
C1478       C  0.53366651  0.72808203  0.99356711    -0.02800
C1479       C  0.52453432  0.76037181  0.00776222     0.07100
C1480       C  0.49041581  0.76495790  0.02102705    -0.03000
Br1481     Br  0.48090631  0.80507393  0.04845165    -0.01500
Br1482     Br  0.41718043  0.74759942  0.03347425    -0.01600
Br1483     Br  0.58246993  0.71738447  0.98341251    -0.01600
Br1484     Br  0.51962572  0.66257558  0.96155826    -0.01600
C1485       C  0.35009381  0.63626794  0.10602924    -0.02700
C1486       C  0.38332767  0.63752022  0.09029752     0.07000
C1487       C  0.41368124  0.64788948  0.10767373    -0.02800
C1488       C  0.41152683  0.65342421  0.14093166    -0.02800
C1489       C  0.37910625  0.64836978  0.15731823     0.07100
C1490       C  0.34816144  0.64059466  0.13970700    -0.03000
Br1491     Br  0.30336393  0.63431238  0.16147308    -0.01500
Br1492     Br  0.30688911  0.63017845  0.08196553    -0.01600
Br1493     Br  0.45306843  0.67027146  0.16338908    -0.01600
Br1494     Br  0.45781821  0.65846864  0.08561423    -0.01600
C1495       C  0.52122005  0.57781888  0.90747848    -0.02700
C1496       C  0.49076016  0.59976170  0.90739345     0.07000
C1497       C  0.48898191  0.62802616  0.88483259    -0.02800
C1498       C  0.51458890  0.63162983  0.86029067    -0.02800
C1499       C  0.54429905  0.60841949  0.85905561     0.07100
C1500       C  0.54779764  0.58210781  0.88348161    -0.03000
Br1501     Br  0.58745893  0.54992940  0.88287749    -0.01500
Br1502     Br  0.52675931  0.54140622  0.94002218    -0.01600
Br1503     Br  0.50794705  0.66945998  0.82879771    -0.01600
Br1504     Br  0.45331627  0.66454653  0.88957914    -0.01600
C1505       C  0.73801073  0.40781977  0.03622224    -0.02700
C1506       C  0.71050570  0.40406997  0.01334081     0.07000
C1507       C  0.72049908  0.40355839  0.98028730    -0.02800
C1508       C  0.75673980  0.40297821  0.97067117    -0.02800
C1509       C  0.78415669  0.40218915  0.99381504     0.07100
C1510       C  0.77435858  0.40629523  0.02667760    -0.03000
Br1511     Br  0.81097679  0.40892803  0.05890439    -0.01500
Br1512     Br  0.72561919  0.41417555  0.08084037    -0.01600
Br1513     Br  0.76905301  0.40127267  0.92557821    -0.01600
Br1514     Br  0.68432319  0.40294811  0.94774595    -0.01600
C1515       C  0.64712709  0.27717712  0.16283619    -0.02700
C1516       C  0.62577554  0.24642739  0.16114319     0.07000
C1517       C  0.59942336  0.24462579  0.13729453    -0.02800
C1518       C  0.59658518  0.27172475  0.11365062    -0.02800
C1519       C  0.62148692  0.30000827  0.11237109     0.07100
C1520       C  0.64610821  0.30319103  0.13787297    -0.03000
Br1521     Br  0.67984247  0.34162025  0.13796409    -0.01500
Br1522     Br  0.67667905  0.28419110  0.20007005    -0.01600
Br1523     Br  0.55697149  0.27088690  0.08415969    -0.01600
Br1524     Br  0.56607623  0.20574134  0.13813494    -0.01600
C1525       C  0.51406188  0.20125746  0.98518266    -0.02700
C1526       C  0.47755538  0.20818134  0.98949636     0.07000
C1527       C  0.46533192  0.24334667  0.98628365    -0.02800
C1528       C  0.49011535  0.27069903  0.98311288    -0.02800
C1529       C  0.52624906  0.26395853  0.99011062     0.07100
C1530       C  0.53866211  0.22870187  0.98914895    -0.03000
Br1531     Br  0.58796600  0.21651645  0.99458794    -0.01500
Br1532     Br  0.52997730  0.15576739  0.96957579    -0.01600
Br1533     Br  0.47446918  0.31643854  0.96679602    -0.01600
Br1534     Br  0.41568087  0.25566930  0.98741729    -0.01600
C1535       C  0.48220978  0.41497670  0.11040554    -0.02700
C1536       C  0.48864759  0.38622785  0.08969582     0.07000
C1537       C  0.46238464  0.35939300  0.08729643    -0.02800
C1538       C  0.43182266  0.35995948  0.10710878    -0.02800
C1539       C  0.42829476  0.38586005  0.13118913     0.07100
C1540       C  0.45232709  0.41475457  0.13100275    -0.03000
Br1541     Br  0.44337665  0.45469548  0.15860381    -0.01500
Br1542     Br  0.51385358  0.45516050  0.11002851    -0.01600
Br1543     Br  0.39482140  0.32530324  0.10105248    -0.01600
Br1544     Br  0.46918253  0.31985504  0.05895699    -0.01600
C1545       C  0.46363839  0.47682554  0.97492165    -0.02700
C1546       C  0.45765879  0.50736068  0.99349008     0.07000
C1547       C  0.48426384  0.51705106  0.01649141    -0.02800
C1548       C  0.51650898  0.49797103  0.01913147    -0.02800
C1549       C  0.52203462  0.46678552  0.00136763     0.07100
C1550       C  0.49469245  0.45617966  0.97935799    -0.03000
Br1551     Br  0.49706758  0.41241560  0.95525539    -0.01500
Br1552     Br  0.42826294  0.46181583  0.94405553    -0.01600
Br1553     Br  0.55437490  0.51669565  0.04549219    -0.01600
Br1554     Br  0.47860691  0.55678532  0.04524664    -0.01600
C1555       C  0.64973196  0.48412899  0.71485849    -0.02700
C1556       C  0.65350113  0.45612588  0.73740425     0.07000
C1557       C  0.65985733  0.46456941  0.76999103    -0.02800
C1558       C  0.65609006  0.49995884  0.78087061    -0.02800
C1559       C  0.64871556  0.52774565  0.75869589     0.07100
C1560       C  0.64838856  0.51976932  0.72535121    -0.03000
Br1561     Br  0.64675217  0.55767766  0.69385123    -0.01500
Br1562     Br  0.64540724  0.47333081  0.66965217    -0.01600
Br1563     Br  0.65825763  0.50982258  0.82628921    -0.01600
Br1564     Br  0.67489182  0.42737604  0.79912810    -0.01600
C1565       C  0.55711316  0.37151720  0.60959942    -0.02700
C1566       C  0.55310925  0.38465024  0.64115972     0.07000
C1567       C  0.52119702  0.40245491  0.64889929    -0.02800
C1568       C  0.49262534  0.40408709  0.62682111    -0.02800
C1569       C  0.49564036  0.38903673  0.59567470     0.07100
C1570       C  0.52860015  0.37320652  0.58722252    -0.03000
Br1571     Br  0.53446872  0.35022334  0.54611270    -0.01500
Br1572     Br  0.60128871  0.34990166  0.59711777    -0.01600
Br1573     Br  0.44959649  0.42748927  0.64033938    -0.01600
Br1574     Br  0.51685563  0.42616886  0.68997011    -0.01600
C1575       C  0.49865490  0.26774351  0.77186460    -0.02700
C1576       C  0.52899172  0.25964301  0.75367909     0.07000
C1577       C  0.53280229  0.22566468  0.73966591    -0.02800
C1578       C  0.50521088  0.20111608  0.74184063    -0.02800
C1579       C  0.47310789  0.21149017  0.75574984     0.07100
C1580       C  0.47034304  0.24387799  0.77235616    -0.03000
Br1581     Br  0.42823753  0.25517580  0.79673070    -0.01500
Br1582     Br  0.49636640  0.31029778  0.79759083    -0.01600
Br1583     Br  0.51140859  0.15381917  0.72493387    -0.01600
Br1584     Br  0.57438766  0.21230568  0.71555846    -0.01600
C1585       C  0.60042555  0.38042172  0.85814588    -0.02700
C1586       C  0.60354774  0.34712392  0.84288377     0.07000
C1587       C  0.60237881  0.31553507  0.86179994    -0.02800
C1588       C  0.60338085  0.31735994  0.89542355    -0.02800
C1589       C  0.60369211  0.35053500  0.91038429     0.07100
C1590       C  0.60102945  0.38199747  0.89197847    -0.03000
Br1591     Br  0.59710601  0.42715704  0.91335779    -0.01500
Br1592     Br  0.59215576  0.42374459  0.83398704    -0.01600
Br1593     Br  0.60154628  0.27425011  0.92111535    -0.01600
Br1594     Br  0.59380173  0.26965285  0.84246186    -0.01600
C1595       C  0.60290668  0.21821516  0.61384511    -0.02700
C1596       C  0.62633025  0.18871169  0.61211665     0.07000
C1597       C  0.65367838  0.18547463  0.63514904    -0.02800
C1598       C  0.65858953  0.21217582  0.65848231    -0.02800
C1599       C  0.63546821  0.24167948  0.65974223     0.07100
C1600       C  0.60628072  0.24303498  0.63865273    -0.03000
Br1601     Br  0.56868776  0.27709555  0.64558307    -0.01500
Br1602     Br  0.56616931  0.22664234  0.58198672    -0.01600
Br1603     Br  0.69804144  0.20857198  0.68743053    -0.01600
Br1604     Br  0.68678893  0.14656578  0.63283215    -0.01600
C1605       C  0.83881378  0.01530301  0.72816196    -0.02700
C1606       C  0.83617748  0.02490390  0.76113486     0.07000
C1607       C  0.82959756  0.99747598  0.78401108    -0.02800
C1608       C  0.82808592  0.96133373  0.77433721    -0.02800
C1609       C  0.83431046  0.95168404  0.74188304     0.07100
C1610       C  0.83834908  0.97914368  0.71874636    -0.03000
Br1611     Br  0.84589206  0.96682177  0.67422649    -0.01500
Br1612     Br  0.84468636  0.05182945  0.69563389    -0.01600
Br1613     Br  0.81904787  0.92448093  0.80590590    -0.01600
Br1614     Br  0.82693890  0.00877046  0.82919338    -0.01600
C1615       C  0.95109819  0.06632167  0.87292252    -0.02700
C1616       C  0.92814843  0.09612657  0.87206232     0.07000
C1617       C  0.93346731  0.12293155  0.89521974    -0.02800
C1618       C  0.96319447  0.12183201  0.91622902    -0.02800
C1619       C  0.98786778  0.09352910  0.91501032     0.07100
C1620       C  0.98052651  0.06501067  0.89421727    -0.03000
Br1621     Br  0.01031617  0.02348946  0.89565503    -0.01500
Br1622     Br  0.94172068  0.02666519  0.84505002    -0.01600
Br1623     Br  0.97106323  0.16066514  0.94526467    -0.01600
Br1624     Br  0.90103295  0.16227163  0.89744952    -0.01600
C1625       C  0.03807444  0.22443296  0.75608654    -0.02700
C1626       C  0.02871730  0.26100149  0.75453996     0.07000
C1627       C  0.99313072  0.27134727  0.75483050    -0.02800
C1628       C  0.96685519  0.24561616  0.75836839    -0.02800
C1629       C  0.97623900  0.20917472  0.76222220     0.07100
C1630       C  0.01184835  0.19873454  0.76115007    -0.03000
Br1631     Br  0.02486869  0.14900252  0.76366581    -0.01500
Br1632     Br  0.08618797  0.20790057  0.75011992    -0.01600
Br1633     Br  0.91822885  0.26195363  0.75606697    -0.01600
Br1634     Br  0.97984978  0.32036921  0.74615212    -0.01600
C1635       C  0.85655218  0.14070158  0.61453357    -0.02700
C1636       C  0.89014290  0.13452747  0.59968236     0.07000
C1637       C  0.92044726  0.13123222  0.62000350    -0.02800
C1638       C  0.91775745  0.13872551  0.65290588    -0.02800
C1639       C  0.88432311  0.14127427  0.66771784     0.07100
C1640       C  0.85359888  0.14116830  0.64847299    -0.03000
Br1641     Br  0.80724502  0.14028728  0.66839082    -0.01500
Br1642     Br  0.81365079  0.15010711  0.59019457    -0.01600
Br1643     Br  0.96066798  0.14971865  0.67653834    -0.01600
Br1644     Br  0.96630381  0.11467892  0.60530429    -0.01600
C1645       C  0.83491003  0.28099372  0.88852915    -0.02700
C1646       C  0.86746364  0.29386296  0.90016853     0.07000
C1647       C  0.89921183  0.27945063  0.88795073    -0.02800
C1648       C  0.89857548  0.25286380  0.86410491    -0.02800
C1649       C  0.86592120  0.23931926  0.85267640     0.07100
C1650       C  0.83403801  0.25412898  0.86482299    -0.03000
Br1651     Br  0.78873856  0.23925837  0.84810750    -0.01500
Br1652     Br  0.79147223  0.29930902  0.90626143    -0.01600
Br1653     Br  0.94299362  0.23401057  0.84865800    -0.01600
Br1654     Br  0.94401187  0.29521929  0.90505042    -0.01600
C1655       C  0.77566816  0.23457683  0.72688731    -0.02700
C1656       C  0.76725491  0.20936321  0.75182908     0.07000
C1657       C  0.73612254  0.21467453  0.76945932    -0.02800
C1658       C  0.71586076  0.24609442  0.76485383    -0.02800
C1659       C  0.72590554  0.27283671  0.74144552     0.07100
C1660       C  0.75546547  0.26576399  0.72186787    -0.03000
Br1661     Br  0.76993837  0.29953018  0.68880772    -0.01500
Br1662     Br  0.81646024  0.22812102  0.69970016    -0.01600
Br1663     Br  0.67440360  0.25036504  0.79165938    -0.01600
Br1664     Br  0.72237222  0.17934596  0.80128103    -0.01600
loop_ 
_geom_bond_atom_site_label_1 
_geom_bond_atom_site_label_2 
_geom_bond_distance 
_geom_bond_site_symmetry_2 
_ccdc_geom_bond_type 
Fe1          O17   2.088       .  S
Fe1           O7   2.043       .  S
Fe1          O14   2.093       .  S
Fe1           O6   2.061       .  S
Fe1          O12   1.931       .  S
Fe2           O5   2.076       .  S
Fe2           O9   2.001       .  S
Fe2          O13   2.057       .  S
Fe2          O18   1.991       .  S
Fe2          O12   1.928       .  S
Fe3          O21   2.137       .  S
Fe3           O8   2.178       .  S
Fe3          O15   2.144       .  S
Fe3           O4   2.156       .  S
Fe3          O12   1.918       .  S
O4           C11   1.292       .  A
O5           C19   1.282       .  A
O6           C11   1.271       .  A
O7           C10   1.266       .  A
O8           C20   1.288       .  A
O9           C22   1.233       .  A
C10          O15   1.287       .  A
C10        C1616   1.510       .  S
C11        C1606   1.516       .  S
O13          C16   1.278       .  A
O14          C16   1.284       .  A
C16        C1639   1.478       .  S
O17          C22   1.259       .  A
O18          C20   1.240       .  A
C19          O21   1.291       .  A
C19        C1649   1.507       .  S
C20        C1656   1.504       .  S
C22        C1629   1.458       .  S
Fe23         O39   2.053       .  S
Fe23         O29   2.101       .  S
Fe23         O36   2.071       .  S
Fe23         O28   2.033       .  S
Fe23         O34   1.932       .  S
Fe24         O27   2.004       .  S
Fe24         O31   2.037       .  S
Fe24         O35   1.997       .  S
Fe24         O40   2.124       .  S
Fe24         O34   1.928       .  S
Fe25         O43   2.161       .  S
Fe25         O30   2.053       .  S
Fe25         O37   2.108       .  S
Fe25         O26   2.141       .  S
Fe25         O34   1.965       .  S
O26          C33   1.279       .  A
O27          C41   1.237       .  A
O28          C33   1.257       .  A
O29          C32   1.284       .  A
O30          C42   1.278       .  A
O31          C44   1.262       .  A
C32          O37   1.288       .  A
C32        C1556   1.497       .  S
C33        C1566   1.508       .  S
O35          C38   1.258       .  A
O36          C38   1.274       .  A
C38        C1576   1.457       .  S
O39          C44   1.263       .  A
O40          C42   1.283       .  A
C41          O43   1.276       .  A
C41        C1659   1.519       .  S
C42        C1599   1.490       .  S
C44        C1586   1.474       .  S
Fe45         O61   2.044   1_554  S
Fe45         O51   2.086       .  S
Fe45         O58   2.098   1_554  S
Fe45         O50   2.042       .  S
Fe45         O56   1.947       .  S
Fe46         O49   2.017       .  S
Fe46         O53   2.051       .  S
Fe46         O57   2.004   1_556  S
Fe46         O62   2.087   1_556  S
Fe46         O56   1.917   1_556  S
Fe47         O65   2.163       .  S
Fe47         O52   2.105       .  S
Fe47         O59   2.161       .  S
Fe47         O48   2.131       .  S
Fe47         O56   1.944       .  S
O48          C55   1.286       .  A
O49          C63   1.247   1_556  A
O50          C55   1.269       .  A
O51          C54   1.273       .  A
O52          C64   1.279       .  A
O53          C66   1.264       .  A
C54          O59   1.292       .  A
C54        C1506   1.526       .  S
C55        C1519   1.499       .  S
O57          C60   1.257   1_554  A
O58          C60   1.272       .  A
C60        C1529   1.473       .  S
O61          C66   1.265       .  A
O62          C64   1.270       .  A
C63          O65   1.285       .  A
C63        C1549   1.518       .  S
C64        C1536   1.501       .  S
C66        C1589   1.451       .  S
Fe67         O83   2.094       .  S
Fe67         O73   2.028       .  S
Fe67         O80   2.046   1_556  S
Fe67         O72   2.115       .  S
Fe67         O78   1.932       .  S
Fe68         O71   2.133   1_554  S
Fe68         O75   2.006       .  S
Fe68         O79   2.058       .  S
Fe68         O84   2.015       .  S
Fe68         O78   1.928   1_554  S
Fe69         O87   2.062       .  S
Fe69         O74   2.155       .  S
Fe69         O81   2.141       .  S
Fe69         O70   2.109       .  S
Fe69         O78   1.966       .  S
O70          C77   1.288       .  A
O71          C85   1.286       .  A
O72          C77   1.287       .  A
O73          C76   1.256       .  A
O74          C86   1.274       .  A
O75          C88   1.260   1_554  A
C76          O81   1.279       .  A
C76        C1469   1.504       .  S
C77        C1456   1.503       .  S
O79          C82   1.267       .  A
O80          C82   1.261       .  A
C82        C1486   1.475       .  S
O83          C88   1.278       .  A
O84          C86   1.239   1_554  A
C85          O87   1.279       .  A
C85        C1496   1.501       .  S
C86        C1546   1.517       .  S
C88        C1476   1.474       .  S
Fe89        O105   2.059       .  S
Fe89         O95   2.083       .  S
Fe89        O102   2.080       .  S
Fe89         O94   2.049       .  S
Fe89        O100   1.926       .  S
Fe90         O93   2.006       .  S
Fe90         O97   2.068       .  S
Fe90        O101   1.984       .  S
Fe90        O106   2.120       .  S
Fe90        O100   1.918       .  S
Fe91        O109   2.156       .  S
Fe91         O96   2.102       .  S
Fe91        O103   2.157       .  S
Fe91         O92   2.136       .  S
Fe91        O100   1.943       .  S
O92          C99   1.286       .  A
O93         C107   1.238       .  A
O94          C99   1.272       .  A
O95          C98   1.270       .  A
O96         C108   1.282       .  A
O97         C110   1.267       .  A
C98         O103   1.292       .  A
C98        C1399   1.535       .  S
C99        C1406   1.502       .  S
O101        C104   1.254       .  A
O102        C104   1.271       .  A
C104       C1416   1.468       .  S
O105        C110   1.269       .  A
O106        C108   1.281       .  A
C107        O109   1.279       .  A
C107       C1449   1.516       .  S
C108       C1436   1.509       .  S
C110       C1426   1.474       .  S
Fe111       O127   2.075       .  S
Fe111       O117   2.035       .  S
Fe111       O124   2.082       .  S
Fe111       O116   2.061       .  S
Fe111       O122   1.933       .  S
Fe112       O115   2.080       .  S
Fe112       O119   2.007       .  S
Fe112       O123   2.062       .  S
Fe112       O128   1.984       .  S
Fe112       O122   1.938       .  S
Fe113       O131   2.123       .  S
Fe113       O118   2.160       .  S
Fe113       O125   2.132       .  S
Fe113       O114   2.129       .  S
Fe113       O122   1.934       .  S
O114        C121   1.286       .  A
O115        C129   1.284       .  A
O116        C121   1.271       .  A
O117        C120   1.264       .  A
O118        C130   1.283       .  A
O119        C132   1.238       .  A
C120        O125   1.283       .  A
C120       C1366   1.512       .  S
C121       C1356   1.500       .  S
O123        C126   1.277       .  A
O124        C126   1.280       .  A
C126       C1489   1.472       .  S
O127        C132   1.260       .  A
O128        C130   1.243       .  A
C129        O131   1.288       .  A
C129       C1386   1.510       .  S
C130       C1446   1.496       .  S
C132       C1376   1.454       .  S
Fe133       O149   2.083       .  S
Fe133       O139   2.034       .  S
Fe133       O146   2.045       .  S
Fe133       O138   2.071       .  S
Fe133       O144   1.939       .  S
Fe134       O137   2.094       .  S
Fe134       O141   1.996       .  S
Fe134       O145   2.075       .  S
Fe134       O150   2.015       .  S
Fe134       O144   1.927       .  S
Fe135       O153   2.087       .  S
Fe135       O140   2.147       .  S
Fe135       O147   2.134       .  S
Fe135       O136   2.117       .  S
Fe135       O144   1.945       .  S
O136        C143   1.283       .  A
O137        C151   1.274       .  A
O138        C143   1.271       .  A
O139        C142   1.265       .  A
O140        C152   1.283       .  A
O141        C154   1.256       .  A
C142        O147   1.283       .  A
C142       C1309   1.504       .  S
C143       C1319   1.495       .  S
O145        C148   1.268       .  A
O146        C148   1.264       .  A
C148       C1636   1.501       .  S
O149        C154   1.269       .  A
O150        C152   1.256       .  A
C151        O153   1.278       .  A
C151       C1339   1.514       .  S
C152       C1346   1.508       .  S
C154       C1326   1.441       .  S
Fe155       O171   2.047       .  S
Fe155       O161   2.095       .  S
Fe155       O168   2.089       .  S
Fe155       O160   2.045       .  S
Fe155       O166   1.942       .  S
Fe156       O159   1.997       .  S
Fe156       O163   2.065       .  S
Fe156       O167   1.986       .  S
Fe156       O172   2.115       .  S
Fe156       O166   1.946       .  S
Fe157       O175   2.177       .  S
Fe157       O162   2.096       .  S
Fe157       O169   2.158       .  S
Fe157       O158   2.128       .  S
Fe157       O166   1.957       .  S
O158        C165   1.281       .  A
O159        C173   1.244       .  A
O160        C165   1.264       .  A
O161        C164   1.278       .  A
O162        C174   1.277       .  A
O163        C176   1.265       .  A
C164        O169   1.296       .  A
C164       C1276   1.531       .  S
C165       C1269   1.497       .  S
O167        C170   1.256       .  A
O168        C170   1.277       .  A
C170       C1289   1.452       .  S
O171        C176   1.264       .  A
O172        C174   1.277       .  A
C173        O175   1.283       .  A
C173       C1349   1.519       .  S
C174       C1296   1.523   1_455  S
C176       C1429   1.463       .  S
Fe177       O193   2.062       .  S
Fe177       O183   2.036       .  S
Fe177       O190   2.072       .  S
Fe177       O182   2.074       .  S
Fe177       O188   1.933       .  S
Fe178       O181   2.078       .  S
Fe178       O185   2.019       .  S
Fe178       O189   2.053       .  S
Fe178       O194   1.988       .  S
Fe178       O188   1.942       .  S
Fe179       O197   2.120       .  S
Fe179       O184   2.133       .  S
Fe179       O191   2.121       .  S
Fe179       O180   2.113       .  S
Fe179       O188   1.938       .  S
O180        C187   1.284       .  A
O181        C195   1.279       .  A
O182        C187   1.276       .  A
O183        C186   1.260       .  A
O184        C196   1.278       .  A
O185        C198   1.243       .  A
C186        O191   1.278       .  A
C186       C1229   1.518       .  S
C187       C1216   1.494       .  S
O189        C192   1.273       .  A
O190        C192   1.272       .  A
C192       C1236   1.474       .  S
O193        C198   1.262       .  A
O194        C196   1.249       .  A
C195        O197   1.286       .  A
C195       C1246   1.502       .  S
C196       C1256   1.481       .  S
C198       C1626   1.457       .  S
Fe199       O215   2.044       .  S
Fe199       O205   2.078       .  S
Fe199       O212   2.084       .  S
Fe199       O204   2.040       .  S
Fe199       O210   1.925       .  S
Fe200       O203   2.005       .  S
Fe200       O207   2.086       .  S
Fe200       O211   2.001       .  S
Fe200       O216   2.115       .  S
Fe200       O210   1.921       .  S
Fe201       O219   2.166       .  S
Fe201       O206   2.080       .  S
Fe201       O213   2.134       .  S
Fe201       O202   2.136       .  S
Fe201       O210   1.941       .  S
O202        C209   1.285       .  A
O203        C217   1.250       .  A
O204        C209   1.269       .  A
O205        C208   1.272       .  A
O206        C218   1.273       .  A
O207        C220   1.269       .  A
C208        O213   1.286       .  A
C208       C1176   1.510       .  S
C209       C1189   1.498       .  S
O211        C214   1.261       .  A
O212        C214   1.273       .  A
C214       C1579   1.450       .  S
O215        C220   1.264       .  A
O216        C218   1.278       .  A
C217        O219   1.284       .  A
C217       C1259   1.515       .  S
C218       C1206   1.511       .  S
C220       C1196   1.490       .  S
Fe221       O237   2.042       .  S
Fe221       O227   2.083       .  S
Fe221       O234   2.091       .  S
Fe221       O226   2.030       .  S
Fe221       O232   1.925       .  S
Fe222       O225   2.012       .  S
Fe222       O229   2.072       .  S
Fe222       O233   1.991       .  S
Fe222       O238   2.114       .  S
Fe222       O232   1.934       .  S
Fe223       O241   2.176       .  S
Fe223       O228   2.065       .  S
Fe223       O235   2.121       .  S
Fe223       O224   2.153       .  S
Fe223       O232   1.949       .  S
O224        C231   1.287       .  A
O225        C239   1.246       .  A
O226        C231   1.263       .  A
O227        C230   1.275       .  A
O228        C240   1.272       .  A
O229        C242   1.266       .  A
C230        O235   1.285       .  A
C230       C1129   1.503       .  S
C231       C1136   1.509       .  S
O233        C236   1.258       .  A
O234        C236   1.276       .  A
C236       C1286   1.471       .  S
O237        C242   1.262       .  A
O238        C240   1.278       .  A
C239        O241   1.286       .  A
C239       C1166   1.512       .  S
C240       C1156   1.490       .  S
C242       C1146   1.482       .  S
Fe243       O259   2.087       .  S
Fe243       O249   2.040       .  S
Fe243       O256   2.036       .  S
Fe243       O248   2.095       .  S
Fe243       O254   1.948       .  S
Fe244       O247   2.119       .  S
Fe244       O251   1.989       .  S
Fe244       O255   2.062       .  S
Fe244       O260   2.013       .  S
Fe244       O254   1.935       .  S
Fe245       O263   2.068       .  S
Fe245       O250   2.159       .  S
Fe245       O257   2.136       .  S
Fe245       O246   2.122       .  S
Fe245       O254   1.958       .  S
O246        C253   1.287       .  A
O247        C261   1.279       .  A
O248        C253   1.279       .  A
O249        C252   1.262       .  A
O250        C262   1.281       .  A
O251        C264   1.258       .  A
C252        O257   1.282       .  A
C252       C1099   1.495       .  S
C253       C1109   1.508       .  S
O255        C258   1.268       .  A
O256        C258   1.262       .  A
C258       C1239   1.465       .  S
O259        C264   1.273       .  A
O260        C262   1.245       .  A
C261        O263   1.275       .  A
C261       C1119   1.499   1_455  S
C262       C1169   1.509       .  S
C264       C1329   1.441       .  S
Fe265       O281   2.106   1_556  S
Fe265       O271   2.051       .  S
Fe265       O278   2.048   1_556  S
Fe265       O270   2.085       .  S
Fe265       O276   1.933       .  S
Fe266       O269   2.108   1_554  S
Fe266       O273   2.002   1_554  S
Fe266       O277   2.084       .  S
Fe266       O282   2.012       .  S
Fe266       O276   1.925   1_554  S
Fe267       O285   2.088       .  S
Fe267       O272   2.157       .  S
Fe267       O279   2.133       .  S
Fe267       O268   2.133       .  S
Fe267       O276   1.942       .  S
O268        C275   1.286       .  A
O269        C283   1.276       .  A
O270        C275   1.274       .  A
O271        C274   1.271       .  A
O272        C284   1.284       .  A
O273        C286   1.260   1_556  A
C274        O279   1.283       .  A
C274       C1059   1.504       .  S
C275       C1046   1.510       .  S
O277        C280   1.269       .  A
O278        C280   1.263       .  A
C280       C1069   1.502       .  S
O281        C286   1.276       .  A
O282        C284   1.254   1_554  A
C283        O285   1.275       .  A
C283       C1076   1.515       .  S
C284       C1086   1.506       .  S
C286       C1479   1.467       .  S
Fe287       O303   2.036   1_554  S
Fe287       O293   2.093       .  S
Fe287       O300   2.091   1_554  S
Fe287       O292   2.056       .  S
Fe287       O298   1.931       .  S
Fe288       O291   2.017   1_554  S
Fe288       O295   2.084   1_554  S
Fe288       O299   2.013       .  S
Fe288       O304   2.101       .  S
Fe288       O298   1.930       .  S
Fe289       O307   2.160       .  S
Fe289       O294   2.099       .  S
Fe289       O301   2.149       .  S
Fe289       O290   2.138       .  S
Fe289       O298   1.932       .  S
O290        C297   1.286       .  A
O291        C305   1.258   1_556  A
O292        C297   1.270       .  A
O293        C296   1.274       .  A
O294        C306   1.276       .  A
O295        C308   1.270       .  A
C296        O301   1.289       .  A
C296       C1016   1.526       .  S
C297       C1026   1.501       .  S
O299        C302   1.260   1_554  A
O300        C302   1.272       .  A
C302       C1526   1.472       .  S
O303        C308   1.264       .  A
O304        C306   1.274       .  A
C305        O307   1.287       .  A
C305       C1089   1.503   1_545  S
C306       C1039   1.518       .  S
C308       C1199   1.473       .  S
Fe309       O325   2.049       .  S
Fe309       O315   2.065       .  S
Fe309       O322   2.069       .  S
Fe309       O314   2.039       .  S
Fe309       O320   1.930       .  S
Fe310       O313   2.014       .  S
Fe310       O317   2.066       .  S
Fe310       O321   2.007       .  S
Fe310       O326   2.099       .  S
Fe310       O320   1.915       .  S
Fe311       O329   2.136       .  S
Fe311       O316   2.098       .  S
Fe311       O323   2.123       .  S
Fe311       O312   2.129       .  S
Fe311       O320   1.941       .  S
O312        C319   1.286       .  A
O313        C327   1.249       .  A
O314        C319   1.268       .  A
O315        C318   1.269       .  A
O316        C328   1.278       .  A
O317        C330   1.266       .  A
C318        O323   1.283       .  A
C318        C976   1.497       .  S
C319        C986   1.495       .  S
O321        C324   1.262       .  A
O322        C324   1.269       .  A
C324       C1419   1.450       .  S
O325        C330   1.266       .  A
O326        C328   1.271       .  A
C327        O329   1.282       .  A
C327       C1006   1.491       .  S
C328        C996   1.506       .  S
C330       C1149   1.471       .  S
Fe331       O347   2.089       .  S
Fe331       O337   2.056       .  S
Fe331       O344   2.051       .  S
Fe331       O336   2.085       .  S
Fe331       O342   1.935       .  S
Fe332       O335   2.112       .  S
Fe332       O339   1.985       .  S
Fe332       O343   2.063       .  S
Fe332       O348   2.009       .  S
Fe332       O342   1.918       .  S
Fe333       O351   2.079       .  S
Fe333       O338   2.138       .  S
Fe333       O345   2.127       .  S
Fe333       O334   2.113       .  S
Fe333       O342   1.950       .  S
O334        C341   1.282       .  A
O335        C349   1.276       .  A
O336        C341   1.276       .  A
O337        C340   1.269       .  A
O338        C350   1.279       .  A
O339        C352   1.257       .  A
C340        O345   1.283       .  A
C340        C959   1.497       .  S
C341        C946   1.499       .  S
O343        C346   1.265       .  A
O344        C346   1.265       .  A
C346       C1066   1.468       .  S
O347        C352   1.275       .  A
O348        C350   1.242       .  A
C349        O351   1.274       .  A
C349        C969   1.497       .  S
C350       C1009   1.489       .  S
C352       C1379   1.462       .  S
Fe353       O369   2.104       .  S
Fe353       O359   2.040       .  S
Fe353       O366   2.052   1_554  S
Fe353       O358   2.105       .  S
Fe353       O364   1.921       .  S
Fe354       O357   2.139       .  S
Fe354       O361   1.983       .  S
Fe354       O365   2.075   1_554  S
Fe354       O370   2.005   1_554  S
Fe354       O364   1.933       .  S
Fe355       O373   2.064       .  S
Fe355       O360   2.160       .  S
Fe355       O367   2.135       .  S
Fe355       O356   2.120       .  S
Fe355       O364   1.959       .  S
O356        C363   1.289       .  A
O357        C371   1.285       .  A
O358        C363   1.282       .  A
O359        C362   1.263       .  A
O360        C372   1.278       .  A
O361        C374   1.254       .  A
C362        O367   1.281       .  A
C362        C999   1.499       .  S
C363       C1049   1.509       .  S
O365        C368   1.267       .  A
O366        C368   1.263       .  A
C368        C926   1.491       .  S
O369        C374   1.282       .  A
O370        C372   1.237   1_556  A
C371        O373   1.276       .  A
C371       C1409   1.498       .  S
C372        C939   1.509       .  S
C374        C919   1.468       .  S
Fe375       O391   2.040   1_556  S
Fe375       O381   2.090       .  S
Fe375       O388   2.097   1_556  S
Fe375       O380   2.042       .  S
Fe375       O386   1.936       .  S
Fe376       O379   2.011       .  S
Fe376       O383   2.061       .  S
Fe376       O387   2.001   1_554  S
Fe376       O392   2.112   1_554  S
Fe376       O386   1.919   1_554  S
Fe377       O395   2.154       .  S
Fe377       O382   2.104       .  S
Fe377       O389   2.154       .  S
Fe377       O378   2.131       .  S
Fe377       O386   1.945       .  S
O378        C385   1.285       .  A
O379        C393   1.241   1_554  A
O380        C385   1.268       .  A
O381        C384   1.274       .  A
O382        C394   1.281       .  A
O383        C396   1.266       .  A
C384        O389   1.291       .  A
C384       C1019   1.524       .  S
C385       C1249   1.485       .  S
O387        C390   1.258   1_556  A
O388        C390   1.274       .  A
C390        C896   1.472       .  S
O391        C396   1.264       .  A
O392        C394   1.277       .  A
C393        O395   1.281       .  A
C393        C936   1.507   1_556  S
C394       C1619   1.509   1_455  S
C396        C906   1.453       .  S
Fe397       O413   2.051       .  S
Fe397       O403   2.077       .  S
Fe397       O410   2.074       .  S
Fe397       O402   2.039       .  S
Fe397       O408   1.940       .  S
Fe398       O401   1.996       .  S
Fe398       O405   2.037       .  S
Fe398       O409   1.990       .  S
Fe398       O414   2.139       .  S
Fe398       O408   1.926       .  S
Fe399       O417   2.156       .  S
Fe399       O404   2.075       .  S
Fe399       O411   2.142       .  S
Fe399       O400   2.109       .  S
Fe399       O408   1.971       .  S
O400        C407   1.274       .  A
O401        C415   1.232       .  A
O402        C407   1.262       .  A
O403        C406   1.279       .  A
O404        C416   1.277       .  A
O405        C418   1.260       .  A
C406        O411   1.294       .  A
C406       C1396   1.511       .  S
C407       C1336   1.512       .  S
O409        C412   1.253       .  A
O410        C412   1.275       .  A
C412        C879   1.469       .  S
O413        C418   1.263       .  A
O414        C416   1.286       .  A
C415        O417   1.272       .  A
C415        C889   1.514       .  S
C416       C1096   1.501       .  S
C418        C909   1.467       .  S
Fe419       O435   2.091       .  S
Fe419       O425   2.035       .  S
Fe419       O432   2.094       .  S
Fe419       O424   2.056       .  S
Fe419       O430   1.932       .  S
Fe420       O423   2.088       .  S
Fe420       O427   2.002       .  S
Fe420       O431   2.069       .  S
Fe420       O436   1.993       .  S
Fe420       O430   1.928       .  S
Fe421       O439   2.137       .  S
Fe421       O426   2.152       .  S
Fe421       O433   2.128       .  S
Fe421       O422   2.135       .  S
Fe421       O430   1.928       .  S
O422        C429   1.288       .  A
O423        C437   1.279       .  A
O424        C429   1.271       .  A
O425        C428   1.264       .  A
O426        C438   1.283       .  A
O427        C440   1.234       .  A
C428        O433   1.282       .  A
C428       C1539   1.499       .  S
C429       C1359   1.503       .  S
O431        C434   1.282       .  A
O432        C434   1.282       .  A
C434        C866   1.491       .  S
O435        C440   1.259       .  A
O436        C438   1.244       .  A
C437        O439   1.289       .  A
C437       C1029   1.507       .  S
C438        C886   1.495       .  S
C440        C859   1.459       .  S
Fe441       O457   2.047       .  S
Fe441       O447   2.070       .  S
Fe441       O454   2.090       .  S
Fe441       O446   2.050       .  S
Fe441       O452   1.937       .  S
Fe442       O445   2.014       .  S
Fe442       O449   2.072       .  S
Fe442       O453   1.986       .  S
Fe442       O458   2.100       .  S
Fe442       O452   1.930       .  S
Fe443       O461   2.146       .  S
Fe443       O448   2.097       .  S
Fe443       O455   2.126       .  S
Fe443       O444   2.128       .  S
Fe443       O452   1.937       .  S
O444        C451   1.283       .  A
O445        C459   1.256       .  A
O446        C451   1.268       .  A
O447        C450   1.271       .  A
O448        C460   1.277       .  A
O449        C462   1.265       .  A
C450        O455   1.285       .  A
C450       C1126   1.501       .  S
C451        C966   1.493       .  S
O453        C456   1.258       .  A
O454        C456   1.274       .  A
C456        C826   1.439       .  S
O457        C462   1.260       .  A
O458        C460   1.273       .  A
C459        O461   1.282       .  A
C459        C849   1.500       .  S
C460       C1369   1.514       .  S
C462        C836   1.493       .  S
Fe463       O479   2.079       .  S
Fe463       O469   2.053       .  S
Fe463       O476   2.067       .  S
Fe463       O468   2.071       .  S
Fe463       O474   1.937       .  S
Fe464       O467   2.112       .  S
Fe464       O471   1.999       .  S
Fe464       O475   2.074       .  S
Fe464       O480   2.006       .  S
Fe464       O474   1.924       .  S
Fe465       O483   2.090       .  S
Fe465       O470   2.153       .  S
Fe465       O477   2.127       .  S
Fe465       O466   2.121       .  S
Fe465       O474   1.951       .  S
O466        C473   1.285       .  A
O467        C481   1.276       .  A
O468        C473   1.272       .  A
O469        C472   1.268       .  A
O470        C482   1.281       .  A
O471        C484   1.261       .  A
C472        O477   1.282       .  A
C472       C1209   1.509       .  S
C473       C1106   1.496       .  S
O475        C478   1.266       .  A
O476        C478   1.266       .  A
C478        C869   1.511       .  S
O479        C484   1.273       .  A
O480        C482   1.251       .  A
C481        O483   1.275       .  A
C481       C1569   1.517       .  S
C482        C846   1.503       .  S
C484        C816   1.444       .  S
Fe485       O501   2.089       .  S
Fe485       O491   2.059       .  S
Fe485       O498   2.052       .  S
Fe485       O490   2.079       .  S
Fe485       O496   1.923       .  S
Fe486       O489   2.118       .  S
Fe486       O493   2.001       .  S
Fe486       O497   2.097       .  S
Fe486       O502   2.012       .  S
Fe486       O496   1.921       .  S
Fe487       O505   2.099       .  S
Fe487       O492   2.149       .  S
Fe487       O499   2.143       .  S
Fe487       O488   2.133       .  S
Fe487       O496   1.935       .  S
O488        C495   1.286       .  A
O489        C503   1.276       .  A
O490        C495   1.271       .  A
O491        C494   1.272       .  A
O492        C504   1.284       .  A
O493        C506   1.258       .  A
C494        O499   1.288       .  A
C494       C1299   1.512       .  S
C495       C1609   1.509       .  S
O497        C500   1.272       .  A
O498        C500   1.263       .  A
C500        C929   1.500       .  S
O501        C506   1.274       .  A
O502        C504   1.249       .  A
C503        O505   1.280       .  A
C503       C1139   1.516       .  S
C504        C806   1.501       .  S
C506        C796   1.461       .  S
Fe507       O523   2.031       .  S
Fe507       O513   2.092       .  S
Fe507       O520   2.103       .  S
Fe507       O512   2.025       .  S
Fe507       O518   1.931       .  S
Fe508       O511   2.005       .  S
Fe508       O515   2.080       .  S
Fe508       O519   1.977       .  S
Fe508       O524   2.144       .  S
Fe508       O518   1.931       .  S
Fe509       O527   2.153       .  S
Fe509       O514   2.059       .  S
Fe509       O521   2.114       .  S
Fe509       O510   2.137       .  S
Fe509       O518   1.956       .  S
O510        C517   1.285       .  A
O511        C525   1.239       .  A
O512        C517   1.261       .  A
O513        C516   1.277       .  A
O514        C526   1.272       .  A
O515        C528   1.267       .  A
C516        O521   1.283       .  A
C516       C1559   1.504       .  S
C517       C1499   1.505       .  S
O519        C522   1.257       .  A
O520        C522   1.281       .  A
C522        C786   1.455       .  S
O523        C528   1.258       .  A
O524        C526   1.284       .  A
C525        O527   1.280       .  A
C525        C809   1.500       .  S
C526       C1056   1.513       .  S
C528        C839   1.478       .  S
Fe529       O545   2.051       .  S
Fe529       O535   2.067       .  S
Fe529       O542   2.077       .  S
Fe529       O534   2.048       .  S
Fe529       O540   1.933       .  S
Fe530       O533   2.012       .  S
Fe530       O537   2.089       .  S
Fe530       O541   2.011       .  S
Fe530       O546   2.089       .  S
Fe530       O540   1.919       .  S
Fe531       O549   2.161       .  S
Fe531       O536   2.077       .  S
Fe531       O543   2.116       .  S
Fe531       O532   2.139       .  S
Fe531       O540   1.919       .  S
O532        C539   1.288       .  A
O533        C547   1.260       .  A
O534        C539   1.270       .  A
O535        C538   1.269       .  A
O536        C548   1.269       .  A
O537        C550   1.270       .  A
C538        O543   1.281       .  A
C538        C979   1.495       .  S
C539       C1116   1.500       .  S
O541        C544   1.256       .  A
O542        C544   1.270       .  A
C544        C876   1.450       .  S
O545        C550   1.267       .  A
O546        C548   1.268       .  A
C547        O549   1.291       .  A
C547        C779   1.502       .  S
C548       C1306   1.510       .  S
C550        C769   1.486       .  S
Fe551       O567   2.060       .  S
Fe551       O557   2.027       .  S
Fe551       O564   2.078       .  S
Fe551       O556   2.053       .  S
Fe551       O562   1.942       .  S
Fe552       O555   2.078       .  S
Fe552       O559   2.024       .  S
Fe552       O563   2.057       .  S
Fe552       O568   1.981       .  S
Fe552       O562   1.939       .  S
Fe553       O571   2.115       .  S
Fe553       O558   2.136       .  S
Fe553       O565   2.123       .  S
Fe553       O554   2.150       .  S
Fe553       O562   1.940       .  S
O554        C561   1.294       .  A
O555        C569   1.277       .  A
O556        C561   1.276       .  A
O557        C560   1.254       .  A
O558        C570   1.281       .  A
O559        C572   1.243       .  A
C560        O565   1.275       .  A
C560       C1036   1.526       .  S
C561        C949   1.501       .  S
O563        C566   1.270       .  A
O564        C566   1.270       .  A
C566        C759   1.483       .  S
O567        C572   1.261       .  A
O568        C570   1.249       .  A
C569        O571   1.286       .  A
C569       C1516   1.489       .  S
C570        C776   1.484       .  S
C572        C856   1.465       .  S
Fe573       O589   2.043   1_556  S
Fe573       O579   2.093       .  S
Fe573       O586   2.102   1_556  S
Fe573       O578   2.055       .  S
Fe573       O584   1.942       .  S
Fe574       O577   2.013       .  S
Fe574       O581   2.089       .  S
Fe574       O585   2.005   1_554  S
Fe574       O590   2.098   1_554  S
Fe574       O584   1.922   1_554  S
Fe575       O593   2.167       .  S
Fe575       O580   2.099       .  S
Fe575       O587   2.146       .  S
Fe575       O576   2.132       .  S
Fe575       O584   1.935       .  S
O576        C583   1.286       .  A
O577        C591   1.258   1_554  A
O578        C583   1.270       .  A
O579        C582   1.275       .  A
O580        C592   1.275       .  A
O581        C594   1.273       .  A
C582        O587   1.289       .  A
C582       C1509   1.523       .  S
C583       C1646   1.495       .  S
O585        C588   1.255   1_556  A
O586        C588   1.272       .  A
C588        C899   1.473       .  S
O589        C594   1.267       .  A
O590        C592   1.273       .  A
C591        O593   1.289       .  A
C591        C746   1.499       .  S
C592       C1226   1.518       .  S
C594        C766   1.474       .  S
Fe595       O611   2.087       .  S
Fe595       O601   2.041       .  S
Fe595       O608   2.035   1_554  S
Fe595       O600   2.081       .  S
Fe595       O606   1.937       .  S
Fe596       O599   2.095       .  S
Fe596       O603   1.994       .  S
Fe596       O607   2.086   1_554  S
Fe596       O612   2.016       .  S
Fe596       O606   1.933       .  S
Fe597       O615   2.078       .  S
Fe597       O602   2.169       .  S
Fe597       O609   2.147       .  S
Fe597       O598   2.135       .  S
Fe597       O606   1.940       .  S
O598        C605   1.287       .  A
O599        C613   1.273       .  A
O600        C605   1.274       .  A
O601        C604   1.265       .  A
O602        C614   1.288       .  A
O603        C616   1.256       .  A
C604        O609   1.287       .  A
C604       C1439   1.503       .  S
C605       C1459   1.511       .  S
O607        C610   1.269       .  A
O608        C610   1.262       .  A
C610        C739   1.486       .  S
O611        C616   1.274       .  A
O612        C614   1.257       .  A
C613        O615   1.272       .  A
C613        C989   1.505   1_455  S
C614        C749   1.503       .  S
C616        C916   1.449       .  S
Fe617       O633   2.097       .  S
Fe617       O623   2.006       .  S
Fe617       O630   2.020       .  S
Fe617       O622   2.092       .  S
Fe617       O628   1.937       .  S
Fe618       O621   2.143       .  S
Fe618       O625   1.993       .  S
Fe618       O629   2.083       .  S
Fe618       O634   2.011       .  S
Fe618       O628   1.934       .  S
Fe619       O637   2.062       .  S
Fe619       O624   2.150       .  S
Fe619       O631   2.127       .  S
Fe619       O620   2.117       .  S
Fe619       O628   1.963       .  S
O620        C627   1.285       .  A
O621        C635   1.285       .  A
O622        C627   1.278       .  A
O623        C626   1.256       .  A
O624        C636   1.278       .  A
O625        C638   1.259       .  A
C626        O631   1.282       .  A
C626       C1596   1.491       .  S
C627       C1316   1.507       .  S
O629        C632   1.269       .  A
O630        C632   1.256       .  A
C632        C756   1.476       .  S
O633        C638   1.279       .  A
O634        C636   1.242       .  A
C635        O637   1.272       .  A
C635       C1186   1.510       .  S
C636        C726   1.500       .  S
C638        C819   1.464       .  S
Fe639       O655   2.042       .  S
Fe639       O645   2.071       .  S
Fe639       O652   2.079       .  S
Fe639       O644   2.053       .  S
Fe639       O650   1.943       .  S
Fe640       O643   2.013       .  S
Fe640       O647   2.066       .  S
Fe640       O651   1.989       .  S
Fe640       O656   2.106       .  S
Fe640       O650   1.935       .  S
Fe641       O659   2.139       .  S
Fe641       O646   2.086       .  S
Fe641       O653   2.152       .  S
Fe641       O642   2.135       .  S
Fe641       O650   1.944       .  S
O642        C649   1.286       .  A
O643        C657   1.248       .  A
O644        C649   1.270       .  A
O645        C648   1.269       .  A
O646        C658   1.277       .  A
O647        C660   1.267       .  A
C648        O653   1.288       .  A
C648       C1279   1.517       .  S
C649       C1389   1.498       .  S
O651        C654   1.257       .  A
O652        C654   1.269       .  A
C654        C829   1.436       .  S
O655        C660   1.265       .  A
O656        C658   1.275       .  A
C657        O659   1.281       .  A
C657        C729   1.500       .  S
C658        C956   1.504       .  S
C660        C716   1.475       .  S
Fe661       O677   2.039       .  S
Fe661       O667   2.079       .  S
Fe661       O674   2.079       .  S
Fe661       O666   2.031       .  S
Fe661       O672   1.929       .  S
Fe662       O665   2.011       .  S
Fe662       O669   2.059       .  S
Fe662       O673   1.993       .  S
Fe662       O678   2.106       .  S
Fe662       O672   1.926       .  S
Fe663       O681   2.152       .  S
Fe663       O668   2.096       .  S
Fe663       O675   2.137       .  S
Fe663       O664   2.146       .  S
Fe663       O672   1.939       .  S
O664        C671   1.286       .  A
O665        C679   1.246       .  A
O666        C671   1.264       .  A
O667        C670   1.272       .  A
O668        C680   1.280       .  A
O669        C682   1.266       .  A
C670        O675   1.287       .  A
C670       C1179   1.509       .  S
C671       C1079   1.506       .  S
O673        C676   1.259       .  A
O674        C676   1.273       .  A
C676        C789   1.438       .  S
O677        C682   1.262       .  A
O678        C680   1.274       .  A
C679        O681   1.283       .  A
C679        C706   1.504       .  S
C680       C1466   1.510       .  S
C682        C719   1.467       .  S
Fe683       O699   2.103       .  S
Fe683       O689   2.030       .  S
Fe683       O696   2.039       .  S
Fe683       O688   2.078       .  S
Fe683       O694   1.929       .  S
Fe684       O687   2.119       .  S
Fe684       O691   1.992       .  S
Fe684       O695   2.088       .  S
Fe684       O700   2.014       .  S
Fe684       O694   1.908       .  S
Fe685       O703   2.078       .  S
Fe685       O690   2.165       .  S
Fe685       O697   2.136       .  S
Fe685       O686   2.115       .  S
Fe685       O694   1.944       .  S
O686        C693   1.282       .  A
O687        C701   1.277       .  A
O688        C693   1.274       .  A
O689        C692   1.268       .  A
O690        C702   1.286       .  A
O691        C704   1.257       .  A
C692        O697   1.287       .  A
C692       C1159   1.492       .  S
C693       C1219   1.499       .  S
O695        C698   1.269       .  A
O696        C698   1.261       .  A
C698        C736   1.481       .  S
O699        C704   1.275       .  A
O700        C702   1.247       .  A
C701        O703   1.273       .  A
C701       C1266   1.499       .  S
C702        C709   1.505       .  S
C704        C799   1.473       .  S
C705        C706   1.435       .  A
C705        C710   1.416       .  A
C705       Br712   1.935       .  S
C706        C707   1.403       .  A
C707        C708   1.411       .  A
C707       Br714   1.939       .  S
C708        C709   1.433       .  A
C708       Br713   1.929       .  S
C709        C710   1.403       .  A
C710       Br711   1.936       .  S
C715        C716   1.413       .  A
C715        C720   1.397       .  A
C715       Br722   1.936       .  S
C716        C717   1.418       .  A
C717        C718   1.402       .  A
C717       Br724   1.932       .  S
C718        C719   1.409       .  A
C718       Br723   1.937       .  S
C719        C720   1.407       .  A
C720       Br721   1.931       .  S
C725        C726   1.404   1_565  A
C725        C730   1.413       .  A
C725       Br732   1.935       .  S
C726        C727   1.432       .  A
C727        C728   1.412       .  A
C727       Br734   1.935       .  S
C728        C729   1.404   1_545  A
C728       Br733   1.936       .  S
C729        C730   1.432       .  A
C730       Br731   1.936       .  S
C735        C736   1.416       .  A
C735        C740   1.408       .  A
C735       Br742   1.937       .  S
C736        C737   1.409       .  A
C737        C738   1.404       .  A
C737       Br744   1.932       .  S
C738        C739   1.417       .  A
C738       Br743   1.937       .  S
C739        C740   1.416       .  A
C740       Br741   1.934       .  S
C745        C746   1.410   1_554  A
C745        C750   1.413   1_655  A
C745       Br752   1.929       .  S
C746        C747   1.413       .  A
C747        C748   1.416   1_655  A
C747       Br754   1.915       .  S
C748        C749   1.414   1_556  A
C748       Br753   1.930       .  S
C749        C750   1.414       .  A
C750       Br751   1.915       .  S
C755        C756   1.407       .  A
C755        C760   1.405       .  A
C755       Br762   1.935       .  S
C756        C757   1.415       .  A
C757        C758   1.404       .  A
C757       Br764   1.936       .  S
C758        C759   1.417       .  A
C758       Br763   1.941       .  S
C759        C760   1.421       .  A
C760       Br761   1.937       .  S
C765        C766   1.409       .  A
C765        C770   1.405       .  A
C765       Br772   1.937       .  S
C766        C767   1.408       .  A
C767        C768   1.406       .  A
C767       Br774   1.929       .  S
C768        C769   1.418       .  A
C768       Br773   1.937       .  S
C769        C770   1.420       .  A
C770       Br771   1.936       .  S
C775        C776   1.409       .  A
C775        C780   1.417       .  A
C775       Br782   1.929       .  S
C776        C777   1.415       .  A
C777        C778   1.412       .  A
C777       Br784   1.933       .  S
C778        C779   1.414       .  A
C778       Br783   1.924       .  S
C779        C780   1.420       .  A
C780       Br781   1.932       .  S
C785        C786   1.407       .  A
C785        C790   1.397       .  A
C785       Br792   1.928       .  S
C786        C787   1.417       .  A
C787        C788   1.392       .  A
C787       Br794   1.928       .  S
C788        C789   1.397       .  A
C788       Br793   1.935       .  S
C789        C790   1.406       .  A
C790       Br791   1.933       .  S
C795        C796   1.403   1_455  A
C795        C800   1.390       .  A
C795       Br802   1.936       .  S
C796        C797   1.416       .  A
C797        C798   1.400       .  A
C797       Br804   1.932       .  S
C798        C799   1.409   1_655  A
C798       Br803   1.933       .  S
C799        C800   1.418       .  A
C800       Br801   1.932       .  S
C805        C806   1.433       .  A
C805        C810   1.411       .  A
C805       Br812   1.928       .  S
C806        C807   1.403       .  A
C807        C808   1.412       .  A
C807       Br814   1.938       .  S
C808        C809   1.435       .  A
C808       Br813   1.933       .  S
C809        C810   1.401       .  A
C810       Br811   1.938       .  S
C815        C816   1.405       .  A
C815        C820   1.396       .  A
C815       Br822   1.932       .  S
C816        C817   1.398       .  A
C817        C818   1.396       .  A
C817       Br824   1.936       .  S
C818        C819   1.419       .  A
C818       Br823   1.926       .  S
C819        C820   1.408       .  A
C820       Br821   1.923       .  S
C825        C826   1.407       .  A
C825        C830   1.399       .  A
C825       Br832   1.931       .  S
C826        C827   1.403       .  A
C827        C828   1.389       .  A
C827       Br834   1.927       .  S
C828        C829   1.399       .  A
C828       Br833   1.924       .  S
C829        C830   1.405       .  A
C830       Br831   1.930       .  S
C835        C836   1.424       .  A
C835        C840   1.406       .  A
C835       Br842   1.940       .  S
C836        C837   1.422       .  A
C837        C838   1.405       .  A
C837       Br844   1.941       .  S
C838        C839   1.413       .  A
C838       Br843   1.941       .  S
C839        C840   1.408       .  A
C840       Br841   1.935       .  S
C845        C846   1.420       .  A
C845        C850   1.412       .  A
C845       Br852   1.938       .  S
C846        C847   1.415       .  A
C847        C848   1.413       .  A
C847       Br854   1.920       .  S
C848        C849   1.415       .  A
C848       Br853   1.935       .  S
C849        C850   1.412       .  A
C850       Br851   1.922       .  S
C855        C856   1.404       .  A
C855        C860   1.392       .  A
C855       Br862   1.944       .  S
C856        C857   1.429       .  A
C857        C858   1.399       .  A
C857       Br864   1.941       .  S
C858        C859   1.400       .  A
C858       Br863   1.938       .  S
C859        C860   1.423       .  A
C860       Br861   1.934       .  S
C865        C866   1.411       .  A
C865        C870   1.413       .  A
C865       Br872   1.935       .  S
C866        C867   1.413       .  A
C867        C868   1.407       .  A
C867       Br874   1.940       .  S
C868        C869   1.426       .  A
C868       Br873   1.941       .  S
C869        C870   1.427       .  A
C870       Br871   1.935       .  S
C875        C876   1.401   1_455  A
C875        C880   1.396       .  A
C875       Br882   1.937       .  S
C876        C877   1.413       .  A
C877        C878   1.394   1_655  A
C877       Br884   1.937       .  S
C878        C879   1.408       .  A
C878       Br883   1.937   1_455  S
C879        C880   1.425       .  A
C880       Br881   1.943       .  S
C885        C886   1.426       .  A
C885        C890   1.412       .  A
C885       Br892   1.926       .  S
C886        C887   1.399       .  A
C887        C888   1.417       .  A
C887       Br894   1.937       .  S
C888        C889   1.440       .  A
C888       Br893   1.927       .  S
C889        C890   1.405       .  A
C890       Br891   1.935       .  S
C895        C896   1.408       .  A
C895        C900   1.397       .  A
C895       Br902   1.931       .  S
C896        C897   1.418   1_455  A
C897        C898   1.399       .  A
C897       Br904   1.931       .  S
C898        C899   1.406       .  A
C898       Br903   1.930       .  S
C899        C900   1.415   1_655  A
C900       Br901   1.934       .  S
C905        C906   1.407       .  A
C905        C910   1.405       .  A
C905       Br912   1.931       .  S
C906        C907   1.402       .  A
C907        C908   1.394       .  A
C907       Br914   1.933       .  S
C908        C909   1.416       .  A
C908       Br913   1.938       .  S
C909        C910   1.413       .  A
C910       Br911   1.931       .  S
C915        C916   1.399       .  A
C915        C920   1.398       .  A
C915       Br922   1.939       .  S
C916        C917   1.410   1_454  A
C917        C918   1.397       .  A
C917       Br924   1.936       .  S
C918        C919   1.408   1_556  A
C918       Br923   1.933       .  S
C919        C920   1.426   1_655  A
C920       Br921   1.933       .  S
C925        C926   1.415       .  A
C925        C930   1.409       .  A
C925       Br932   1.938       .  S
C926        C927   1.414       .  A
C927        C928   1.409       .  A
C927       Br934   1.936       .  S
C928        C929   1.422       .  A
C928       Br933   1.939       .  S
C929        C930   1.418       .  A
C930       Br931   1.932       .  S
C935        C936   1.403   1_566  A
C935        C940   1.414   1_455  A
C935       Br942   1.939       .  S
C936        C937   1.435   1_455  A
C937        C938   1.414       .  A
C937       Br944   1.932       .  S
C938        C939   1.404   1_545  A
C938       Br943   1.937       .  S
C939        C940   1.436   1_554  A
C940       Br941   1.930       .  S
C945        C946   1.409       .  A
C945        C950   1.416   1_565  A
C945       Br952   1.926       .  S
C946        C947   1.416       .  A
C947        C948   1.418   1_565  A
C947       Br954   1.925       .  S
C948        C949   1.411       .  A
C948       Br953   1.928       .  S
C949        C950   1.415       .  A
C950       Br951   1.927       .  S
C955        C956   1.415       .  A
C955        C960   1.417       .  A
C955       Br962   1.928       .  S
C956        C957   1.418       .  A
C957        C958   1.416       .  A
C957       Br964   1.928       .  S
C958        C959   1.412       .  A
C958       Br963   1.928       .  S
C959        C960   1.412       .  A
C960       Br961   1.929       .  S
C965        C966   1.414       .  A
C965        C970   1.418       .  A
C965       Br972   1.928       .  S
C966        C967   1.409       .  A
C967        C968   1.412       .  A
C967       Br974   1.927       .  S
C968        C969   1.414       .  A
C968       Br973   1.923       .  S
C969        C970   1.412       .  A
C970       Br971   1.927       .  S
C975        C976   1.410       .  A
C975        C980   1.418       .  A
C975       Br982   1.927       .  S
C976        C977   1.416       .  A
C977        C978   1.415       .  A
C977       Br984   1.926       .  S
C978        C979   1.409       .  A
C978       Br983   1.930       .  S
C979        C980   1.416       .  A
C980       Br981   1.927       .  S
C985        C986   1.410       .  A
C985        C990   1.414       .  A
C985       Br992   1.933       .  S
C986        C987   1.416       .  A
C987        C988   1.412       .  A
C987       Br994   1.936       .  S
C988        C989   1.418       .  A
C988       Br993   1.935   1_655  S
C989        C990   1.423       .  A
C990       Br991   1.931       .  S
C995        C996   1.414       .  A
C995       C1000   1.415       .  A
C995      Br1002   1.929       .  S
C996        C997   1.423       .  A
C997        C998   1.419       .  A
C997      Br1004   1.931       .  S
C998        C999   1.410       .  A
C998      Br1003   1.929       .  S
C999       C1000   1.413       .  A
C1000     Br1001   1.931       .  S
C1005      C1006   1.431       .  A
C1005      C1010   1.407       .  A
C1005     Br1012   1.930       .  S
C1006      C1007   1.402       .  A
C1007      C1008   1.408       .  A
C1007     Br1014   1.938       .  S
C1008      C1009   1.431       .  A
C1008     Br1013   1.932       .  S
C1009      C1010   1.399       .  A
C1010     Br1011   1.938       .  S
C1015      C1016   1.413       .  A
C1015      C1020   1.428       .  A
C1015     Br1022   1.926       .  S
C1016      C1017   1.422   1_554  A
C1017      C1018   1.427       .  A
C1017     Br1024   1.923       .  S
C1018      C1019   1.413       .  A
C1018     Br1023   1.927       .  S
C1019      C1020   1.419   1_556  A
C1020     Br1021   1.919       .  S
C1025      C1026   1.416       .  A
C1025      C1030   1.417       .  A
C1025     Br1032   1.933       .  S
C1026      C1027   1.410       .  A
C1027      C1028   1.420       .  A
C1027     Br1034   1.927       .  S
C1028      C1029   1.419       .  A
C1028     Br1033   1.928       .  S
C1029      C1030   1.416       .  A
C1030     Br1031   1.933       .  S
C1035      C1036   1.418       .  A
C1035      C1040   1.419       .  A
C1035     Br1042   1.937       .  S
C1036      C1037   1.435       .  A
C1037      C1038   1.420       .  A
C1037     Br1044   1.943       .  S
C1038      C1039   1.414       .  A
C1038     Br1043   1.938       .  S
C1039      C1040   1.421       .  A
C1040     Br1041   1.922       .  S
C1045      C1046   1.417   1_554  A
C1045      C1050   1.423       .  A
C1045     Br1052   1.925       .  S
C1046      C1047   1.411       .  A
C1047      C1048   1.421       .  A
C1047     Br1054   1.923       .  S
C1048      C1049   1.415   1_556  A
C1048     Br1053   1.924       .  S
C1049      C1050   1.412       .  A
C1050     Br1051   1.927       .  S
C1055      C1056   1.422       .  A
C1055      C1060   1.425       .  A
C1055     Br1062   1.924       .  S
C1056      C1057   1.419       .  A
C1057      C1058   1.408       .  A
C1057     Br1064   1.929       .  S
C1058      C1059   1.409       .  A
C1058     Br1063   1.934       .  S
C1059      C1060   1.413       .  A
C1060     Br1061   1.925       .  S
C1065      C1066   1.403       .  A
C1065      C1070   1.407       .  A
C1065     Br1072   1.936       .  S
C1066      C1067   1.403       .  A
C1067      C1068   1.406       .  A
C1067     Br1074   1.937       .  S
C1068      C1069   1.429       .  A
C1068     Br1073   1.939       .  S
C1069      C1070   1.430       .  A
C1070     Br1071   1.940       .  S
C1075      C1076   1.420       .  A
C1075      C1080   1.413       .  A
C1075     Br1082   1.936       .  S
C1076      C1077   1.426       .  A
C1077      C1078   1.422       .  A
C1077     Br1084   1.933       .  S
C1078      C1079   1.413       .  A
C1078     Br1083   1.931       .  S
C1079      C1080   1.417       .  A
C1080     Br1081   1.938       .  S
C1085      C1086   1.420   1_554  A
C1085      C1090   1.415       .  A
C1085     Br1092   1.934       .  S
C1086      C1087   1.415       .  A
C1087      C1088   1.413       .  A
C1087     Br1094   1.921       .  S
C1088      C1089   1.413   1_556  A
C1088     Br1093   1.929       .  S
C1089      C1090   1.411       .  A
C1090     Br1091   1.920       .  S
C1095      C1096   1.411       .  A
C1095      C1100   1.416       .  A
C1095     Br1102   1.922       .  S
C1096      C1097   1.414       .  A
C1097      C1098   1.418       .  A
C1097     Br1104   1.922       .  S
C1098      C1099   1.413       .  A
C1098     Br1103   1.929       .  S
C1099      C1100   1.413       .  A
C1100     Br1101   1.930       .  S
C1105      C1106   1.406       .  A
C1105      C1110   1.414       .  A
C1105     Br1112   1.930       .  S
C1106      C1107   1.414       .  A
C1107      C1108   1.422       .  A
C1107     Br1114   1.926       .  S
C1108      C1109   1.413       .  A
C1108     Br1113   1.925       .  S
C1109      C1110   1.417       .  A
C1110     Br1111   1.916       .  S
C1115      C1116   1.414       .  A
C1115      C1120   1.416       .  A
C1115     Br1122   1.923       .  S
C1116      C1117   1.415       .  A
C1117      C1118   1.414       .  A
C1117     Br1124   1.930       .  S
C1118      C1119   1.413       .  A
C1118     Br1123   1.932   1_655  S
C1119      C1120   1.415       .  A
C1120     Br1121   1.929       .  S
C1125      C1126   1.417       .  A
C1125      C1130   1.419       .  A
C1125     Br1132   1.927       .  S
C1126      C1127   1.410       .  A
C1127      C1128   1.420       .  A
C1127     Br1134   1.928       .  S
C1128      C1129   1.417       .  A
C1128     Br1133   1.926       .  S
C1129      C1130   1.411       .  A
C1130     Br1131   1.928       .  S
C1135      C1136   1.417       .  A
C1135      C1140   1.416       .  A
C1135     Br1142   1.934       .  S
C1136      C1137   1.411       .  A
C1137      C1138   1.423       .  A
C1137     Br1144   1.930       .  S
C1138      C1139   1.426       .  A
C1138     Br1143   1.929       .  S
C1139      C1140   1.416       .  A
C1140     Br1141   1.932       .  S
C1145      C1146   1.417       .  A
C1145      C1150   1.402       .  A
C1145     Br1152   1.938       .  S
C1146      C1147   1.418       .  A
C1147      C1148   1.405       .  A
C1147     Br1154   1.932       .  S
C1148      C1149   1.409       .  A
C1148     Br1153   1.937       .  S
C1149      C1150   1.410       .  A
C1150     Br1151   1.933       .  S
C1155      C1156   1.411       .  A
C1155      C1160   1.408   1_655  A
C1155     Br1162   1.934       .  S
C1156      C1157   1.414   1_655  A
C1157      C1158   1.416       .  A
C1157     Br1164   1.928       .  S
C1158      C1159   1.412       .  A
C1158     Br1163   1.927       .  S
C1159      C1160   1.417       .  A
C1160     Br1161   1.937       .  S
C1165      C1166   1.406       .  A
C1165      C1170   1.418       .  A
C1165     Br1172   1.932       .  S
C1166      C1167   1.433       .  A
C1167      C1168   1.416   1_655  A
C1167     Br1174   1.934   1_655  S
C1168      C1169   1.405       .  A
C1168     Br1173   1.935       .  S
C1169      C1170   1.433   1_455  A
C1170     Br1171   1.934       .  S
C1175      C1176   1.417       .  A
C1175      C1180   1.421   1_545  A
C1175     Br1182   1.925       .  S
C1176      C1177   1.412       .  A
C1177      C1178   1.422   1_545  A
C1177     Br1184   1.925       .  S
C1178      C1179   1.418       .  A
C1178     Br1183   1.925       .  S
C1179      C1180   1.412       .  A
C1180     Br1181   1.927       .  S
C1185      C1186   1.417       .  A
C1185      C1190   1.406       .  A
C1185     Br1192   1.922       .  S
C1186      C1187   1.420       .  A
C1187      C1188   1.424       .  A
C1187     Br1194   1.923       .  S
C1188      C1189   1.411       .  A
C1188     Br1193   1.922       .  S
C1189      C1190   1.408       .  A
C1190     Br1191   1.936       .  S
C1195      C1196   1.421       .  A
C1195      C1200   1.406       .  A
C1195     Br1202   1.939       .  S
C1196      C1197   1.420       .  A
C1197      C1198   1.403       .  A
C1197     Br1204   1.930       .  S
C1198      C1199   1.410       .  A
C1198     Br1203   1.942       .  S
C1199      C1200   1.408       .  A
C1200     Br1201   1.930       .  S
C1205      C1206   1.419       .  A
C1205      C1210   1.416       .  A
C1205     Br1212   1.934       .  S
C1206      C1207   1.421       .  A
C1207      C1208   1.419       .  A
C1207     Br1214   1.935       .  S
C1208      C1209   1.415       .  A
C1208     Br1213   1.926       .  S
C1209      C1210   1.417       .  A
C1210     Br1211   1.935       .  S
C1215      C1216   1.408       .  A
C1215      C1220   1.410       .  A
C1215     Br1222   1.932       .  S
C1216      C1217   1.414       .  A
C1217      C1218   1.419       .  A
C1217     Br1224   1.925       .  S
C1218      C1219   1.412       .  A
C1218     Br1223   1.925       .  S
C1219      C1220   1.415       .  A
C1220     Br1221   1.922       .  S
C1225      C1226   1.421   1_455  A
C1225      C1230   1.418       .  A
C1225     Br1232   1.919       .  S
C1226      C1227   1.415       .  A
C1227      C1228   1.419   1_655  A
C1227     Br1234   1.936       .  S
C1228      C1229   1.428       .  A
C1228     Br1233   1.938       .  S
C1229      C1230   1.416       .  A
C1230     Br1231   1.937       .  S
C1235      C1236   1.415       .  A
C1235      C1240   1.403       .  A
C1235     Br1242   1.937       .  S
C1236      C1237   1.418       .  A
C1237      C1238   1.400       .  A
C1237     Br1244   1.935       .  S
C1238      C1239   1.406       .  A
C1238     Br1243   1.936       .  S
C1239      C1240   1.409       .  A
C1240     Br1241   1.934       .  S
C1245      C1246   1.416       .  A
C1245      C1250   1.413       .  A
C1245     Br1252   1.913       .  S
C1246      C1247   1.415       .  A
C1247      C1248   1.414       .  A
C1247     Br1254   1.927       .  S
C1248      C1249   1.411       .  A
C1248     Br1253   1.928       .  S
C1249      C1250   1.406       .  A
C1250     Br1251   1.931       .  S
C1255      C1256   1.392       .  A
C1255      C1260   1.410       .  A
C1255     Br1262   1.923       .  S
C1256      C1257   1.415       .  A
C1257      C1258   1.418       .  A
C1257     Br1264   1.928       .  S
C1258      C1259   1.419       .  A
C1258     Br1263   1.924       .  S
C1259      C1260   1.427       .  A
C1260     Br1261   1.923       .  S
C1265      C1266   1.413       .  A
C1265      C1270   1.414       .  A
C1265     Br1272   1.924       .  S
C1266      C1267   1.414       .  A
C1267      C1268   1.418       .  A
C1267     Br1274   1.928       .  S
C1268      C1269   1.413       .  A
C1268     Br1273   1.929       .  S
C1269      C1270   1.411       .  A
C1270     Br1271   1.923       .  S
C1275      C1276   1.418       .  A
C1275      C1280   1.433       .  A
C1275     Br1282   1.927       .  S
C1276      C1277   1.423       .  A
C1277      C1278   1.421       .  A
C1277     Br1284   1.913       .  S
C1278      C1279   1.407       .  A
C1278     Br1283   1.931       .  S
C1279      C1280   1.422       .  A
C1280     Br1281   1.926       .  S
C1285      C1286   1.422       .  A
C1285      C1290   1.393   1_655  A
C1285     Br1292   1.927   1_655  S
C1286      C1287   1.413       .  A
C1287      C1288   1.401       .  A
C1287     Br1294   1.936       .  S
C1288      C1289   1.413   1_655  A
C1288     Br1293   1.938       .  S
C1289      C1290   1.398       .  A
C1290     Br1291   1.939       .  S
C1295      C1296   1.421   1_455  A
C1295      C1300   1.419   1_455  A
C1295     Br1302   1.933       .  S
C1296      C1297   1.428       .  A
C1297      C1298   1.422       .  A
C1297     Br1304   1.929       .  S
C1298      C1299   1.413       .  A
C1298     Br1303   1.935       .  S
C1299      C1300   1.418       .  A
C1300     Br1301   1.935       .  S
C1305      C1306   1.421       .  A
C1305      C1310   1.412       .  A
C1305     Br1312   1.939       .  S
C1306      C1307   1.426       .  A
C1307      C1308   1.416       .  A
C1307     Br1314   1.934       .  S
C1308      C1309   1.411       .  A
C1308     Br1313   1.934       .  S
C1309      C1310   1.418       .  A
C1310     Br1311   1.939       .  S
C1315      C1316   1.414       .  A
C1315      C1320   1.422       .  A
C1315     Br1322   1.925       .  S
C1316      C1317   1.416       .  A
C1317      C1318   1.413       .  A
C1317     Br1324   1.922       .  S
C1318      C1319   1.408       .  A
C1318     Br1323   1.931       .  S
C1319      C1320   1.414       .  A
C1320     Br1321   1.926       .  S
C1325      C1326   1.403       .  A
C1325      C1330   1.400   1_655  A
C1325     Br1332   1.930       .  S
C1326      C1327   1.400       .  A
C1327      C1328   1.394   1_655  A
C1327     Br1334   1.922       .  S
C1328      C1329   1.402       .  A
C1328     Br1333   1.928       .  S
C1329      C1330   1.409       .  A
C1330     Br1331   1.928       .  S
C1335      C1336   1.423       .  A
C1335      C1340   1.411   1_455  A
C1335     Br1342   1.945       .  S
C1336      C1337   1.420       .  A
C1337      C1338   1.421       .  A
C1337     Br1344   1.934       .  S
C1338      C1339   1.422   1_455  A
C1338     Br1343   1.930       .  S
C1339      C1340   1.413       .  A
C1340     Br1341   1.922       .  S
C1345      C1346   1.419       .  A
C1345      C1350   1.418   1_645  A
C1345     Br1352   1.937       .  S
C1346      C1347   1.413       .  A
C1347      C1348   1.418   1_645  A
C1347     Br1354   1.937       .  S
C1348      C1349   1.428       .  A
C1348     Br1353   1.934       .  S
C1349      C1350   1.417       .  A
C1350     Br1351   1.923       .  S
C1355      C1356   1.415       .  A
C1355      C1360   1.418       .  A
C1355     Br1362   1.922       .  S
C1356      C1357   1.411       .  A
C1357      C1358   1.417       .  A
C1357     Br1364   1.932       .  S
C1358      C1359   1.419       .  A
C1358     Br1363   1.928       .  S
C1359      C1360   1.412       .  A
C1360     Br1361   1.930       .  S
C1365      C1366   1.415       .  A
C1365      C1370   1.423       .  A
C1365     Br1372   1.933       .  S
C1366      C1367   1.420       .  A
C1367      C1368   1.413       .  A
C1367     Br1374   1.937       .  S
C1368      C1369   1.415       .  A
C1368     Br1373   1.933       .  S
C1369      C1370   1.427       .  A
C1370     Br1371   1.931       .  S
C1375      C1376   1.400       .  A
C1375      C1380   1.393       .  A
C1375     Br1382   1.935       .  S
C1376      C1377   1.421       .  A
C1377      C1378   1.396       .  A
C1377     Br1384   1.938       .  S
C1378      C1379   1.405       .  A
C1378     Br1383   1.936       .  S
C1379      C1380   1.418       .  A
C1380     Br1381   1.934       .  S
C1385      C1386   1.417       .  A
C1385      C1390   1.415       .  A
C1385     Br1392   1.931       .  S
C1386      C1387   1.423       .  A
C1387      C1388   1.417       .  A
C1387     Br1394   1.930       .  S
C1388      C1389   1.409       .  A
C1388     Br1393   1.930       .  S
C1389      C1390   1.413       .  A
C1390     Br1391   1.923       .  S
C1395      C1396   1.415       .  A
C1395      C1400   1.433   1_545  A
C1395     Br1402   1.926       .  S
C1396      C1397   1.408       .  A
C1397      C1398   1.416   1_545  A
C1397     Br1404   1.940       .  S
C1398      C1399   1.434       .  A
C1398     Br1403   1.936       .  S
C1399      C1400   1.425       .  A
C1400     Br1401   1.925       .  S
C1405      C1406   1.417       .  A
C1405      C1410   1.421       .  A
C1405     Br1412   1.930       .  S
C1406      C1407   1.416       .  A
C1407      C1408   1.411   1_455  A
C1407     Br1414   1.933       .  S
C1408      C1409   1.413       .  A
C1408     Br1413   1.936       .  S
C1409      C1410   1.415   1_655  A
C1410     Br1411   1.927       .  S
C1415      C1416   1.420       .  A
C1415      C1420   1.393       .  A
C1415     Br1422   1.939       .  S
C1416      C1417   1.411   1_455  A
C1417      C1418   1.393       .  A
C1417     Br1424   1.935       .  S
C1418      C1419   1.409       .  A
C1418     Br1423   1.931       .  S
C1419      C1420   1.403   1_655  A
C1420     Br1421   1.934       .  S
C1425      C1426   1.409       .  A
C1425      C1430   1.403       .  A
C1425     Br1432   1.929       .  S
C1426      C1427   1.417       .  A
C1427      C1428   1.402       .  A
C1427     Br1434   1.930       .  S
C1428      C1429   1.404       .  A
C1428     Br1433   1.934       .  S
C1429      C1430   1.406       .  A
C1430     Br1431   1.924       .  S
C1435      C1436   1.413       .  A
C1435      C1440   1.420       .  A
C1435     Br1442   1.923       .  S
C1436      C1437   1.416       .  A
C1437      C1438   1.417       .  A
C1437     Br1444   1.921       .  S
C1438      C1439   1.412       .  A
C1438     Br1443   1.926       .  S
C1439      C1440   1.415       .  A
C1440     Br1441   1.929       .  S
C1445      C1446   1.423       .  A
C1445      C1450   1.409       .  A
C1445     Br1452   1.924       .  S
C1446      C1447   1.398       .  A
C1447      C1448   1.420       .  A
C1447     Br1454   1.932       .  S
C1448      C1449   1.443       .  A
C1448     Br1453   1.933       .  S
C1449      C1450   1.408       .  A
C1450     Br1451   1.936       .  S
C1455      C1456   1.407       .  A
C1455      C1460   1.415       .  A
C1455     Br1462   1.928       .  S
C1456      C1457   1.414   1_556  A
C1457      C1458   1.425       .  A
C1457     Br1464   1.926       .  S
C1458      C1459   1.415       .  A
C1458     Br1463   1.923       .  S
C1459      C1460   1.417   1_554  A
C1460     Br1461   1.921       .  S
C1465      C1466   1.414       .  A
C1465      C1470   1.414       .  A
C1465     Br1472   1.933       .  S
C1466      C1467   1.426       .  A
C1467      C1468   1.421       .  A
C1467     Br1474   1.932       .  S
C1468      C1469   1.410       .  A
C1468     Br1473   1.930       .  S
C1469      C1470   1.419       .  A
C1470     Br1471   1.934       .  S
C1475      C1476   1.410   1_554  A
C1475      C1480   1.401       .  A
C1475     Br1482   1.934       .  S
C1476      C1477   1.423       .  A
C1477      C1478   1.401       .  A
C1477     Br1484   1.932       .  S
C1478      C1479   1.400   1_556  A
C1478     Br1483   1.934       .  S
C1479      C1480   1.412       .  A
C1480     Br1481   1.935       .  S
C1485      C1486   1.415       .  A
C1485      C1490   1.409       .  A
C1485     Br1492   1.927       .  S
C1486      C1487   1.411       .  A
C1487      C1488   1.398       .  A
C1487     Br1494   1.940       .  S
C1488      C1489   1.412       .  A
C1488     Br1493   1.934       .  S
C1489      C1490   1.410       .  A
C1490     Br1491   1.930       .  S
C1495      C1496   1.417       .  A
C1495      C1500   1.421       .  A
C1495     Br1502   1.924       .  S
C1496      C1497   1.410       .  A
C1497      C1498   1.409       .  A
C1497     Br1504   1.938       .  S
C1498      C1499   1.424       .  A
C1498     Br1503   1.937       .  S
C1499      C1500   1.415       .  A
C1500     Br1501   1.928       .  S
C1505      C1506   1.414       .  A
C1505      C1510   1.430       .  A
C1505     Br1512   1.925       .  S
C1506      C1507   1.421   1_554  A
C1507      C1508   1.426       .  A
C1507     Br1514   1.920       .  S
C1508      C1509   1.411       .  A
C1508     Br1513   1.927       .  S
C1509      C1510   1.421   1_556  A
C1510     Br1511   1.926       .  S
C1515      C1516   1.413       .  A
C1515      C1520   1.417       .  A
C1515     Br1522   1.925       .  S
C1516      C1517   1.405       .  A
C1517      C1518   1.411       .  A
C1517     Br1524   1.930       .  S
C1518      C1519   1.421       .  A
C1518     Br1523   1.932       .  S
C1519      C1520   1.414       .  A
C1520     Br1521   1.927       .  S
C1525      C1526   1.415       .  A
C1525      C1530   1.400       .  A
C1525     Br1532   1.935       .  S
C1526      C1527   1.408       .  A
C1527      C1528   1.396       .  A
C1527     Br1534   1.933       .  S
C1528      C1529   1.418       .  A
C1528     Br1533   1.936       .  S
C1529      C1530   1.410       .  A
C1530     Br1531   1.931       .  S
C1535      C1536   1.411       .  A
C1535      C1540   1.415       .  A
C1535     Br1542   1.927       .  S
C1536      C1537   1.419       .  A
C1537      C1538   1.417       .  A
C1537     Br1544   1.924       .  S
C1538      C1539   1.410       .  A
C1538     Br1543   1.929       .  S
C1539      C1540   1.416       .  A
C1540     Br1541   1.930       .  S
C1545      C1546   1.409       .  A
C1545      C1550   1.419       .  A
C1545     Br1552   1.938       .  S
C1546      C1547   1.435   1_556  A
C1547      C1548   1.418       .  A
C1547     Br1554   1.935       .  S
C1548      C1549   1.409       .  A
C1548     Br1553   1.937       .  S
C1549      C1550   1.437   1_554  A
C1550     Br1551   1.939       .  S
C1555      C1556   1.408       .  A
C1555      C1560   1.417       .  A
C1555     Br1562   1.928       .  S
C1556      C1557   1.411       .  A
C1557      C1558   1.419       .  A
C1557     Br1564   1.925       .  S
C1558      C1559   1.413       .  A
C1558     Br1563   1.924       .  S
C1559      C1560   1.417       .  A
C1560     Br1561   1.924       .  S
C1565      C1566   1.412       .  A
C1565      C1570   1.422       .  A
C1565     Br1572   1.930       .  S
C1566      C1567   1.418       .  A
C1567      C1568   1.416       .  A
C1567     Br1574   1.938       .  S
C1568      C1569   1.420       .  A
C1568     Br1573   1.935       .  S
C1569      C1570   1.426       .  A
C1570     Br1571   1.932       .  S
C1575      C1576   1.407       .  A
C1575      C1580   1.396       .  A
C1575     Br1582   1.937       .  S
C1576      C1577   1.419       .  A
C1577      C1578   1.394       .  A
C1577     Br1584   1.932       .  S
C1578      C1579   1.400       .  A
C1578     Br1583   1.936       .  S
C1579      C1580   1.411       .  A
C1580     Br1581   1.934       .  S
C1585      C1586   1.416       .  A
C1585      C1590   1.404       .  A
C1585     Br1592   1.930       .  S
C1586      C1587   1.418       .  A
C1587      C1588   1.396       .  A
C1587     Br1594   1.940       .  S
C1588      C1589   1.401       .  A
C1588     Br1593   1.932       .  S
C1589      C1590   1.405       .  A
C1590     Br1591   1.932       .  S
C1595      C1596   1.424       .  A
C1595      C1600   1.403       .  A
C1595     Br1602   1.939       .  S
C1596      C1597   1.411       .  A
C1597      C1598   1.415       .  A
C1597     Br1604   1.931       .  S
C1598      C1599   1.415       .  A
C1598     Br1603   1.917       .  S
C1599      C1600   1.407       .  A
C1600     Br1601   1.938       .  S
C1605      C1606   1.421       .  A
C1605      C1610   1.421   1_545  A
C1605     Br1612   1.927       .  S
C1606      C1607   1.416   1_545  A
C1607      C1608   1.424       .  A
C1607     Br1614   1.927   1_565  S
C1608      C1609   1.417       .  A
C1608     Br1613   1.926       .  S
C1609      C1610   1.410       .  A
C1610     Br1611   1.928       .  S
C1615      C1616   1.419       .  A
C1615      C1620   1.420       .  A
C1615     Br1622   1.931       .  S
C1616      C1617   1.415       .  A
C1617      C1618   1.421       .  A
C1617     Br1624   1.927       .  S
C1618      C1619   1.418       .  A
C1618     Br1623   1.927       .  S
C1619      C1620   1.412       .  A
C1620     Br1621   1.928   1_655  S
C1625      C1626   1.423       .  A
C1625      C1630   1.398       .  A
C1625     Br1632   1.938       .  S
C1626      C1627   1.400   1_455  A
C1627      C1628   1.393       .  A
C1627     Br1634   1.943       .  S
C1628      C1629   1.425       .  A
C1628     Br1633   1.939       .  S
C1629      C1630   1.402   1_655  A
C1630     Br1631   1.939       .  S
C1635      C1636   1.430       .  A
C1635      C1640   1.411       .  A
C1635     Br1642   1.939       .  S
C1636      C1637   1.425       .  A
C1637      C1638   1.399       .  A
C1637     Br1644   1.942       .  S
C1638      C1639   1.408       .  A
C1638     Br1643   1.940       .  S
C1639      C1640   1.408       .  A
C1640     Br1641   1.935       .  S
C1645      C1646   1.408       .  A
C1645      C1650   1.419       .  A
C1645     Br1652   1.929       .  S
C1646      C1647   1.413       .  A
C1647      C1648   1.415       .  A
C1647     Br1654   1.930       .  S
C1648      C1649   1.417       .  A
C1648     Br1653   1.934       .  S
C1649      C1650   1.422       .  A
C1650     Br1651   1.930       .  S
C1655      C1656   1.431       .  A
C1655      C1660   1.415       .  A
C1655     Br1662   1.926       .  S
C1656      C1657   1.400       .  A
C1657      C1658   1.421       .  A
C1657     Br1664   1.933       .  S
C1658      C1659   1.441       .  A
C1658     Br1663   1.928       .  S
C1659      C1660   1.407       .  A
C1660     Br1661   1.937       .  S
