geometry optimzed in LAMMPS
_audit_creation_date              2020-12-01 
_audit_creation_method            'lammps2cif' 
_symmetry_space_group_name_H-M    'P1' 
_symmetry_Int_Tables_number       1 
_symmetry_cell_setting            triclinic 
loop_ 
_symmetry_equiv_pos_as_xyz 
  x,y,z 
_cell_length_a                    46.05721447 
_cell_length_b                    46.058949601816614 
_cell_length_c                    48.38661805694857 
_cell_angle_alpha                 90.03774101139717 
_cell_angle_beta                  89.96269872597371 
_cell_angle_gamma                 120.0592993685472 
loop_ 
_atom_site_label 
_atom_site_type_symbol 
_atom_site_fract_x 
_atom_site_fract_y 
_atom_site_fract_z 
_atom_site_charge 
O1          O  0.34277616  0.11316721  0.51370508    -0.77600
C2          C  0.43665821  0.16481828  0.57113217     0.83400
O3          O  0.43840241  0.21247879  0.47533866    -0.78700
O4          O  0.48534649  0.13182448  0.50221741    -0.80200
O5          O  0.37085115  0.06248822  0.48780356    -0.80000
O6          O  0.34293162  0.10638379  0.46810771    -0.78600
Zn7        Zn  0.39202041  0.14702878  0.52050389     1.55700
O8          O  0.40367199  0.06575551  0.52322973    -0.80000
Cd9        Cd  0.38727816  0.10672049  0.47207506     1.59700
Cd10       Cd  0.45216456  0.17437085  0.47499208     1.59600
O11         O  0.41100669  0.10428937  0.43859936    -0.80000
O12         O  0.41932410  0.13798023  0.49841301    -1.90500
Cd13       Cd  0.44009745  0.11965475  0.52297230     1.59900
O14         O  0.45638381  0.15503298  0.43741380    -0.80000
O15         O  0.45235114  0.15062170  0.56083313    -0.78600
C16         C  0.41498020  0.21196400  0.49027331     0.83900
C17         C  0.32737979  0.10421608  0.49043076     0.83600
O18         O  0.41011672  0.16089524  0.55936940    -0.77600
C19         C  0.37830306  0.04901546  0.50694646     0.84400
O20         O  0.39736150  0.18824063  0.50665727    -0.77700
C21         C  0.43939642  0.12498359  0.42867891     0.84500
C22         C  0.00646213  0.16111519  0.49315162     0.84800
O23         O  0.49821022  0.18354827  0.48882194    -0.80100
O24         O  0.43973873  0.01599691  0.32149114    -0.77600
C25         C  0.49144718  0.10989299  0.26411799     0.83400
O26         O  0.03912430  0.11158351  0.35983000    -0.78700
O27         O  0.45847473  0.15858726  0.33307834    -0.80200
O28         O  0.38914443  0.04409718  0.34745051    -0.80000
O29         O  0.43304994  0.51616285  0.36709970    -0.78600
Zn30       Zn  0.47362509  0.06522934  0.31471281     1.55700
O31         O  0.39240197  0.07692030  0.31202881    -0.80000
Cd32       Cd  0.43338220  0.06051236  0.36316582     1.59700
Cd33       Cd  0.50103927  0.12537610  0.36021667     1.59600
O34         O  0.43099429  0.08425086  0.39665402    -0.80000
O35         O  0.46461810  0.09255212  0.33681814    -1.90500
Cd36       Cd  0.44629823  0.11335345  0.31228665     1.59900
O37         O  0.48175668  0.12960493  0.39781525    -0.80000
O38         O  0.47728262  0.12561122  0.27442967    -0.78600
C39         C  0.03858223  0.08814508  0.34490061     0.83900
C40         C  0.43084089  0.50060703  0.34476906     0.83600
O41         O  0.48747677  0.08332356  0.27585828    -0.77600
C42         C  0.37566821  0.05154698  0.32830806     0.84400
O43         O  0.01483869  0.07052416  0.32853165    -0.77700
C44         C  0.45171130  0.11263724  0.40656537     0.84500
C45         C  0.48777720  0.17969372  0.34213059     0.84800
O46         O  0.51021155  0.17143150  0.34641856    -0.80100
O47         O  0.49448996  0.43890098  0.32139765    -0.77600
C48         C  0.40071806  0.39668462  0.26398368     0.83400
O49         O  0.39896014  0.44258093  0.35991087    -0.78700
O50         O  0.35195921  0.31493356  0.33285921    -0.80200
O51         O  0.46638059  0.36009865  0.34745155    -0.80000
O52         O  0.99441925  0.43199665  0.36698804    -0.78600
Zn53       Zn  0.44528297  0.42355285  0.31466727     1.55700
O54         O  0.43371204  0.33057864  0.31191263    -0.80000
Cd55       Cd  0.45002470  0.38797243  0.36310526     1.59700
Cd56       Cd  0.38525920  0.39071949  0.36024079     1.59600
O57         O  0.42640377  0.36193647  0.39665628    -0.80000
O58         O  0.41801034  0.38714301  0.33674211    -1.90500
Cd59       Cd  0.39725872  0.34801968  0.31211547     1.59900
O60         O  0.38102559  0.36721145  0.39782446    -0.80000
O61         O  0.38504020  0.36675057  0.27423696    -0.78600
C62         C  0.42234683  0.46552099  0.34496460     0.83900
C63         C  0.00993179  0.44534204  0.34464535     0.83600
O64         O  0.42722395  0.41934473  0.27579727    -0.77600
C65         C  0.45900751  0.33919651  0.32827491     0.84400
O66         O  0.43996944  0.45944893  0.32856174    -0.77700
C67         C  0.39803079  0.35423082  0.40659437     0.84500
C68         C  0.33091183  0.32313943  0.34200552     0.84800
O69         O  0.33923380  0.35384356  0.34641536    -0.80100
O70         O  0.39750455  0.24496758  0.51376731    -0.77600
C71         C  0.34602979  0.28721176  0.57129789     0.83400
O72         O  0.29822852  0.24126630  0.47547791    -0.78700
O73         O  0.37910341  0.36899106  0.50237585    -0.80200
O74         O  0.44822992  0.32358558  0.48793489    -0.80000
O75         O  0.40420487  0.25182061  0.46816389    -0.78600
Zn76       Zn  0.36368310  0.26033741  0.52060580     1.55700
O77         O  0.44508327  0.35321097  0.52339029    -0.80000
Cd78       Cd  0.40397976  0.29588163  0.47218137     1.59700
Cd79       Cd  0.33643208  0.29312862  0.47510201     1.59600
O80         O  0.40648097  0.32208813  0.43872953    -0.80000
O81         O  0.37278174  0.29671593  0.49854765    -1.90500
Cd82       Cd  0.39120105  0.33586171  0.52313207     1.59900
O83         O  0.35568471  0.31649135  0.43746851    -0.80000
O84         O  0.36023948  0.31712153  0.56101280    -0.78600
C85         C  0.29869702  0.21834540  0.49038943     0.83900
C86         C  0.40643197  0.23850279  0.49048397     0.83600
O87         O  0.34990473  0.26457633  0.55949857    -0.77600
C88         C  0.46175585  0.34449603  0.50711089     0.84400
O89         O  0.32241775  0.22444514  0.50675704    -0.77700
C90         C  0.38574666  0.32964296  0.42875430     0.84500
C91         C  0.34987117  0.36082778  0.49318970     0.84800
O92         O  0.32740799  0.33012197  0.48881348    -0.80100
O93         O  0.07157339  0.07065027  0.32140065    -0.77600
C94         C  0.11388416  0.01921252  0.26388508     0.83400
O95         O  0.06796620  0.47144622  0.35972090    -0.78700
O96         O  0.19566293  0.05233558  0.33275261    -0.80200
O97         O  0.15022044  0.12143573  0.34725257    -0.80000
O98         O  0.07844951  0.07737831  0.36700204    -0.78600
Zn99       Zn  0.08699626  0.03686785  0.31456893     1.55700
O100        O  0.17984881  0.11830986  0.31178860    -0.80000
Cd101      Cd  0.12252798  0.07717673  0.36300216     1.59700
Cd102      Cd  0.11983517  0.00965633  0.36006606     1.59600
O103        O  0.14874701  0.07969740  0.39646540    -0.80000
O104        O  0.12338367  0.04599496  0.33662840    -1.90500
Cd105      Cd  0.16251853  0.06443167  0.31203047     1.59900
O106        O  0.14326280  0.02894827  0.39768268    -0.80000
O107        O  0.14380153  0.03346826  0.27415666    -0.78600
C108        C  0.04504078  0.47190846  0.34480869     0.83900
C109        C  0.06511616  0.07958677  0.34468307     0.83600
O110        O  0.09122900  0.02305320  0.27568832    -0.77600
C111        C  0.17113020  0.13497250  0.32807669     0.84400
O112        O  0.05113731  0.49561834  0.32843446    -0.77700
C113        C  0.15636391  0.05899696  0.40641874     0.84500
C114        C  0.18750416  0.02309501  0.34191123     0.84800
O115        O  0.15680108  0.00062646  0.34629070    -0.80100
O116        O  0.26565651  0.16780360  0.51380540    -0.77600
C117        C  0.22343641  0.07398389  0.57117485     0.83400
O118        O  0.26935018  0.07229844  0.47528291    -0.78700
O119        O  0.14168957  0.02528933  0.50231830    -0.80200
O120        O  0.18685185  0.13970609  0.48771836    -0.80000
O121        O  0.25877382  0.16772833  0.46820971    -0.78600
Zn122      Zn  0.25029316  0.11859550  0.52051990     1.55700
O123        O  0.15736046  0.10705225  0.52327560    -0.80000
Cd124      Cd  0.21472466  0.12333853  0.47205920     1.59700
Cd125      Cd  0.21747375  0.05857016  0.47495307     1.59600
O126        O  0.18868916  0.09969485  0.43849469    -0.80000
O127        O  0.21389303  0.09133120  0.49843065    -1.90500
Cd128      Cd  0.17477619  0.07058053  0.52306153     1.59900
O129        O  0.19393637  0.05429948  0.43737036    -0.80000
O130        O  0.19350007  0.05832186  0.56092472    -0.78600
C131        C  0.29228411  0.09569679  0.49022633     0.83900
C132        C  0.27211852  0.18324040  0.49055503     0.83600
O133        O  0.24609498  0.10050152  0.55937401    -0.77600
C134        C  0.16596962  0.13234442  0.50691224     0.84400
O135        O  0.28619655  0.11331007  0.50662448    -0.77700
C136        C  0.18096666  0.07130693  0.42857734     0.84500
C137        C  0.14990730  0.00423573  0.49321292     0.84800
O138        O  0.18061709  0.01255910  0.48882333    -0.80100
O139        O  0.16119444  0.27229560  0.98808642    -0.77600
C140        C  0.06738239  0.23005659  0.93072121     0.83400
O141        O  0.06563618  0.27594358  0.02658363    -0.78700
O142        O  0.01870743  0.14830134  0.99953512    -0.80200
O143        O  0.13312265  0.19349771  0.01419696    -0.80000
O144        O  0.16111559  0.26542560  0.03368302    -0.78600
Zn145      Zn  0.11198504  0.25692595  0.98137279     1.55700
O146        O  0.10048586  0.16399310  0.97863636    -0.80000
Cd147      Cd  0.11674082  0.22137654  0.02982552     1.59700
Cd148      Cd  0.05193290  0.22407604  0.02690446     1.59600
O149        O  0.09310797  0.19537485  0.06339344    -0.80000
O150        O  0.08472675  0.22051996  0.00345050    -1.90500
Cd151      Cd  0.06400850  0.18140353  0.97882090     1.59900
O152        O  0.04766309  0.20054269  0.06448629    -0.80000
O153        O  0.05174406  0.20011585  0.94096106    -0.78600
C154        C  0.08904800  0.29888686  0.01165653     0.83900
C155        C  0.17662981  0.27875989  0.01133759     0.83600
O156        O  0.09388928  0.25272696  0.94252450    -0.77600
C157        C  0.12576848  0.17260478  0.99501286     0.84400
O158        O  0.10668263  0.29281330  0.99527201    -0.77700
C159        C  0.06470537  0.18761961  0.07329750     0.84500
C160        C  0.49763450  0.15650634  0.00861581     0.84800
O161        O  0.00594008  0.18721014  0.01300428    -0.80100
O162        O  0.06419880  0.07829042  0.18043832    -0.77600
C163        C  0.01266477  0.12050667  0.23794968     0.83400
O164        O  0.46493653  0.07462458  0.14216308    -0.78700
O165        O  0.04582452  0.20233220  0.16911171    -0.80200
O166        O  0.11493817  0.15691477  0.15459962    -0.80000
O167        O  0.07086175  0.08514901  0.13483212    -0.78600
Zn168      Zn  0.03038734  0.09367284  0.18727873     1.55700
O169        O  0.11180783  0.18651394  0.19008421    -0.80000
Cd170      Cd  0.07067089  0.12922873  0.13885728     1.59700
Cd171      Cd  0.00312841  0.12649503  0.14182184     1.59600
O172        O  0.07314934  0.15544704  0.10541216    -0.80000
O173        O  0.03949099  0.13006306  0.16523759    -1.90500
Cd174      Cd  0.05792304  0.16919038  0.18983876     1.59900
O175        O  0.02237144  0.14989936  0.10419599    -0.80000
O176        O  0.02691754  0.15043102  0.22769141    -0.78600
C177        C  0.46542510  0.05169430  0.15704680     0.83900
C178        C  0.07309978  0.07182200  0.15714350     0.83600
O179        O  0.01654510  0.09787430  0.22615260    -0.77600
C180        C  0.12847389  0.17780718  0.17378722     0.84400
O181        O  0.48914955  0.05779068  0.17340654    -0.77700
C182        C  0.05242223  0.16302852  0.09545939     0.84500
C183        C  0.01657792  0.19416756  0.15996008     0.84800
O184        O  0.99410501  0.16346183  0.15560016    -0.80100
O185        O  0.23837346  0.40411129  0.98809141    -0.77600
C186        C  0.28062600  0.35261508  0.93063711     0.83400
O187        O  0.23465151  0.30484883  0.02641850    -0.78700
O188        O  0.36238760  0.38567960  0.99955584    -0.80200
O189        O  0.31691993  0.45479821  0.01393725    -0.80000
O190        O  0.24515521  0.41074304  0.03370271    -0.78600
Zn191      Zn  0.25374511  0.37029309  0.98128700     1.55700
O192        O  0.34663530  0.45167648  0.97854103    -0.80000
Cd193      Cd  0.28923577  0.41055330  0.02970223     1.59700
Cd194      Cd  0.28651903  0.34302915  0.02678179     1.59600
O195        O  0.31546588  0.41308961  0.06314710    -0.80000
O196        O  0.29011196  0.37937799  0.00334635    -1.90500
Cd197      Cd  0.32927853  0.39779691  0.97879034     1.59900
O198        O  0.30991873  0.36231416  0.06439321    -0.80000
O199        O  0.31053782  0.36682635  0.94092019    -0.78600
C200        C  0.21173658  0.30532575  0.01150406     0.83900
C201        C  0.23186817  0.41299915  0.01137421     0.83600
O202        O  0.25799347  0.35650594  0.94242053    -0.77600
C203        C  0.33787375  0.46833566  0.99479099     0.84400
O204        O  0.21784469  0.32904374  0.99513322    -0.77700
C205        C  0.32306047  0.39237557  0.07310300     0.84500
C206        C  0.35419936  0.35642798  0.00870484     0.84800
O207        O  0.32348330  0.33397166  0.01305256    -0.80100
O208        O  0.43242455  0.00112181  0.18043360    -0.77600
C209        C  0.39014651  0.40728470  0.23779988     0.83400
O210        O  0.43606475  0.40561106  0.14185268    -0.78700
O211        O  0.30843027  0.35862295  0.16892936    -0.80200
O212        O  0.35362627  0.47305884  0.15437347    -0.80000
O213        O  0.42552664  0.00108720  0.13484293    -0.78600
Zn214      Zn  0.41704708  0.45190348  0.18714070     1.55700
O215        O  0.32408995  0.44036180  0.18989407    -0.80000
Cd216      Cd  0.38149263  0.45669556  0.13869993     1.59700
Cd217      Cd  0.38420282  0.39190099  0.14155570     1.59600
O218        O  0.35543498  0.43307388  0.10515064    -0.80000
O219        O  0.38064707  0.42466285  0.16505129    -1.90500
Cd220      Cd  0.34152220  0.40390781  0.18967218     1.59900
O221        O  0.36065807  0.38766430  0.10399751    -0.80000
O222        O  0.36021456  0.39164090  0.22754302    -0.78600
C223        C  0.45900129  0.42899228  0.15680483     0.83900
C224        C  0.43886831  0.01658143  0.15719432     0.83600
O225        O  0.41282723  0.43378826  0.22599571    -0.77600
C226        C  0.33271738  0.46567163  0.17354853     0.84400
O227        O  0.45292411  0.44659438  0.17322362    -0.77700
C228        C  0.34768866  0.40468152  0.09523216     0.84500
C229        C  0.31663698  0.33756422  0.15981781     0.84800
O230        O  0.34734203  0.34588223  0.15541076    -0.80100
O231        O  0.10648694  0.34936037  0.98816851    -0.77600
C232        C  0.15814501  0.44322499  0.93074026     0.83400
O233        O  0.20585009  0.44497012  0.02650247    -0.78700
O234        O  0.12520552  0.49194688  0.99969360    -0.80200
O235        O  0.05585938  0.37744043  0.01403272    -0.80000
O236        O  0.09974685  0.34954074  0.03376902    -0.78600
Zn237      Zn  0.14037345  0.39859174  0.98136048     1.55700
O238        O  0.05912305  0.41028421  0.97862907    -0.80000
Cd239      Cd  0.10008515  0.39388142  0.02977027     1.59700
Cd240      Cd  0.16775519  0.45873588  0.02685236     1.59600
O241        O  0.09767043  0.41765375  0.06321033    -0.80000
O242        O  0.13134839  0.42591254  0.00343863    -1.90500
Cd243      Cd  0.11302281  0.44670731  0.97890580     1.59900
O244        O  0.14846108  0.46296430  0.06443271    -0.80000
O245        O  0.14398115  0.45894466  0.94104772    -0.78600
C246        C  0.20532720  0.42154214  0.01157456     0.83900
C247        C  0.09755540  0.33397637  0.01144861     0.83600
O248        O  0.15420072  0.41667215  0.94249518    -0.77600
C249        C  0.04238616  0.38489872  0.99489534     0.84400
O250        O  0.18159767  0.40391885  0.99519390    -0.77700
C251        C  0.11839579  0.44602391  0.07313979     0.84500
C252        C  0.15449991  0.01304930  0.00876450     0.84800
O253        O  0.17693335  0.00478887  0.01306113    -0.80100
O254        O  0.00947882  0.44639869  0.18027169    -0.77600
C255        C  0.10330733  0.49804318  0.23769136     0.83400
O256        O  0.10507282  0.04581704  0.14196814    -0.78700
O257        O  0.15207217  0.46515779  0.16869956    -0.80200
O258        O  0.03755003  0.39582748  0.15434951    -0.80000
O259        O  0.50964952  0.43974298  0.13466156    -0.78600
Zn260      Zn  0.05870184  0.48029766  0.18706625     1.55700
O261        O  0.07041806  0.39907790  0.18973200    -0.80000
Cd262      Cd  0.05398024  0.44006672  0.13863381     1.59700
Cd263      Cd  0.11885386  0.50772473  0.14156021     1.59600
O264        O  0.07769446  0.43765820  0.10516295    -0.80000
O265        O  0.08603683  0.47130869  0.16496698    -1.90500
Cd266      Cd  0.10683236  0.45297286  0.18948702     1.59900
O267        O  0.12304381  0.48842250  0.10396300    -0.80000
O268        O  0.11904840  0.48390591  0.22736986    -0.78600
C269        C  0.08164050  0.04527697  0.15690683     0.83900
C270        C  0.49408946  0.43750588  0.15699350     0.83600
O271        O  0.07675133  0.49408860  0.22593732    -0.77600
C272        C  0.04502486  0.38234700  0.17347138     0.84400
O273        O  0.06401286  0.02152742  0.17326811    -0.77700
C274        C  0.10607230  0.45836817  0.09523805     0.84500
C275        C  0.17317949  0.49445285  0.15963690     0.84800
O276        O  0.16491906  0.51688579  0.15533460    -0.80100
O277        O  0.24351224  0.43122231  0.39269389    -0.77600
C278        C  0.16075617  0.40523812  0.32387891     0.83400
O279        O  0.27172660  0.40798709  0.30860961    -0.78700
O280        O  0.24431228  0.48859666  0.27178301    -0.80200
O281        O  0.23693075  0.01995087  0.35658799    -0.80000
O282        O  0.28566540  0.48382835  0.39424783    -0.78600
Zn283      Zn  0.22540750  0.42702501  0.35383478     1.55700
O284        O  0.20432767  0.99051478  0.32098888    -0.80000
Cd285      Cd  0.27340063  0.00253597  0.35638056     1.59700
Cd286      Cd  0.28544470  0.45985569  0.30828383     1.59600
O287        O  0.31869162  0.03563464  0.33564676    -0.80000
O288        O  0.25266386  0.46342562  0.33174428    -1.90500
Cd289      Cd  0.22066741  0.46260355  0.30535985     1.59900
O290        O  0.33144782  0.99672341  0.32216335    -0.80000
O291        O  0.17625987  0.41857588  0.30152961    -0.78600
C292        C  0.24831582  0.38504556  0.32353843     0.83900
C293        C  0.27002032  0.45389325  0.40449865     0.83600
O294        O  0.17620293  0.41168678  0.34712449    -0.77600
C295        C  0.21166860  0.01137530  0.34019668     0.84400
O296        O  0.23068750  0.39112113  0.33992972    -0.77700
C297        C  0.33975704  0.02742938  0.32654731     0.84500
C298        C  0.27271386  0.49633274  0.26188443     0.84800
O299        O  0.28973182  0.48338614  0.27069916    -0.80100
O300        O  0.32094780  0.08606900  0.10902658    -0.77600
C301        C  0.26447697  0.11219929  0.17803672     0.83400
O302        O  0.37259768  0.10936568  0.19305019    -0.78700
O303        O  0.26431782  0.02852032  0.22975035    -0.80200
O304        O  0.22574351  0.49744608  0.14511466    -0.80000
O305        O  0.31059903  0.03351872  0.10750487    -0.78600
Zn306      Zn  0.30716188  0.09030514  0.14790429     1.55700
O307        O  0.22262235  0.52713069  0.18053436    -0.80000
Cd308      Cd  0.27962619  0.01477872  0.14536951     1.59700
Cd309      Cd  0.33439707  0.05749063  0.19340443     1.59600
O310        O  0.29173566  0.48164980  0.16610405    -0.80000
O311        O  0.29805899  0.05392242  0.16995497    -1.90500
Cd312      Cd  0.26687148  0.05477896  0.19631264     1.59900
O313        O  0.34343967  0.52052762  0.17964489    -0.80000
O314        O  0.26670574  0.09887025  0.20035021    -0.78600
C315        C  0.37213302  0.13228404  0.17813037     0.83900
C316        C  0.32482449  0.06343387  0.09723194     0.83600
O317        O  0.27337839  0.10572346  0.15474591    -0.77600
C318        C  0.20908393  0.50619999  0.16137326     0.84400
O319        O  0.34842107  0.12617727  0.16175333    -0.77700
C320        C  0.32098026  0.48982162  0.17526453     0.84500
C321        C  0.28502902  0.02093336  0.23972747     0.84800
O322        O  0.31509513  0.03407160  0.23102214    -0.80100
O323        O  0.07946088  0.32748471  0.39281401    -0.77600
C324        C  0.10554420  0.27096472  0.32379961     0.83400
O325        O  0.10272064  0.37915071  0.30882924    -0.78700
O326        O  0.02195490  0.27093692  0.27205188    -0.80200
O327        O  0.49081596  0.23226006  0.35670222    -0.80000
O328        O  0.02690418  0.31712011  0.39434440    -0.78600
Zn329      Zn  0.08368302  0.31368474  0.35393030     1.55700
O330        O  0.52043868  0.22913968  0.32123132    -0.80000
Cd331      Cd  0.00815382  0.28614188  0.35647169     1.59700
Cd332      Cd  0.05086395  0.34094141  0.30846453     1.59600
O333        O  0.47500986  0.29823449  0.33573583    -0.80000
O334        O  0.04729607  0.30458006  0.33188234    -1.90500
Cd335      Cd  0.04814997  0.27340787  0.30550296     1.59900
O336        O  0.51387647  0.34994733  0.32221334    -0.80000
O337        O  0.09222148  0.27319578  0.30148303    -0.78600
C338        C  0.12564943  0.37867029  0.32372123     0.83900
C339        C  0.05682359  0.33135566  0.40461485     0.83600
O340        O  0.09907915  0.27988439  0.34708644    -0.77600
C341        C  0.49952803  0.21559852  0.34040632     0.84400
O342        O  0.11955773  0.35494255  0.34007507    -0.77700
C343        C  0.48317077  0.32747435  0.32657401     0.84500
C344        C  0.01437635  0.29166116  0.26209266     0.84800
O345        O  0.02749819  0.32171066  0.27082773    -0.80100
O346        O  0.42468384  0.25014977  0.10915866    -0.77600
C347        C  0.39869429  0.16739788  0.17796950     0.83400
O348        O  0.40149756  0.27843241  0.19321554    -0.78700
O349        O  0.48203223  0.25096407  0.23003891    -0.80200
O350        O  0.01344290  0.24359217  0.14526202    -0.80000
O351        O  0.47729485  0.29229842  0.10758337    -0.78600
Zn352      Zn  0.42049048  0.23205601  0.14801082     1.55700
O353        O  0.98398147  0.21099134  0.18085302    -0.80000
Cd354      Cd  0.49602020  0.28005618  0.14544694     1.59700
Cd355      Cd  0.45335399  0.29213101  0.19352008     1.59600
O356        O  0.02912465  0.32536748  0.16615531    -0.80000
O357        O  0.45690390  0.25932467  0.17008017    -1.90500
Cd358      Cd  0.45605662  0.22732242  0.19646643     1.59900
O359        O  0.99020590  0.33812246  0.17961772    -0.80000
O360        O  0.41203527  0.18290804  0.20031491    -0.78600
C361        C  0.37854486  0.25501018  0.17830539     0.83900
C362        C  0.44735270  0.27665230  0.09734657     0.83600
O363        O  0.40513502  0.18284440  0.15472419    -0.77600
C364        C  0.00485759  0.21833266  0.16165735     0.84400
O365        O  0.38460436  0.23736172  0.16192349    -0.77700
C366        C  0.02091343  0.34643540  0.17523584     0.84500
C367        C  0.48979398  0.27937439  0.23992750     0.84800
O368        O  0.47688430  0.29641986  0.23109948    -0.80100
O369        O  0.18319481  0.26725747  0.39268311    -0.77600
C370        C  0.23980685  0.34995616  0.32373653     0.83400
O371        O  0.13157142  0.23901070  0.30861445    -0.78700
O372        O  0.23979981  0.26637109  0.27193105    -0.80200
O373        O  0.27826455  0.27362486  0.35650319    -0.80000
O374        O  0.19341365  0.22498629  0.39412776    -0.78600
Zn375      Zn  0.19701629  0.28532576  0.35381099     1.55700
O376        O  0.28151533  0.30652125  0.32114542    -0.80000
Cd377      Cd  0.22435797  0.23721030  0.35624719     1.59700
Cd378      Cd  0.16966329  0.22522170  0.30824985     1.59600
O379        O  0.21216611  0.19197094  0.33545495    -0.80000
O380        O  0.20603832  0.25801039  0.33171107    -1.90500
Cd381      Cd  0.23730120  0.29007405  0.30539051     1.59900
O382        O  0.16046443  0.17914539  0.32201582    -0.80000
O383        O  0.23761374  0.33440158  0.30141045    -0.78600
C384        C  0.13207973  0.26240800  0.32357948     0.83900
C385        C  0.17925731  0.24071114  0.40444397     0.83600
O386        O  0.23088578  0.33456395  0.34701322    -0.77600
C387        C  0.29499541  0.29903452  0.34025769     0.84400
O388        O  0.15579537  0.27999563  0.33998175    -0.77700
C389        C  0.18288592  0.17087724  0.32635101     0.84500
C390        C  0.21910046  0.23800340  0.26198422     0.84800
O391        O  0.18902784  0.22104171  0.27067562    -0.80100
O392        O  0.26074415  0.18985375  0.10920821    -0.77600
C393        C  0.34345999  0.24650999  0.17811728     0.83400
O394        O  0.23250763  0.13821343  0.19320365    -0.78700
O395        O  0.25983201  0.24640664  0.22996006    -0.80200
O396        O  0.26713281  0.28490688  0.14534474    -0.80000
O397        O  0.21845057  0.20004193  0.10778510    -0.78600
Zn398      Zn  0.27883949  0.20369347  0.14806724     1.55700
O399        O  0.30000110  0.28819670  0.18074048    -0.80000
Cd400      Cd  0.23070994  0.23101406  0.14564020     1.59700
Cd401      Cd  0.21871759  0.17630124  0.19358991     1.59600
O402        O  0.18548400  0.21884544  0.16644328    -0.80000
O403        O  0.25152271  0.21270606  0.17016935    -1.90500
Cd404      Cd  0.28357085  0.24397728  0.19649306     1.59900
O405        O  0.17264329  0.16712304  0.17981917    -0.80000
O406        O  0.32790997  0.24430437  0.20045023    -0.78600
C407        C  0.25593453  0.13874424  0.17826390     0.83900
C408        C  0.23417628  0.18588914  0.09746690     0.83600
O409        O  0.32806420  0.23759812  0.15484262    -0.77600
C410        C  0.29252947  0.30165442  0.16159853     0.84400
O411        O  0.27355019  0.16248068  0.16188776    -0.77700
C412        C  0.16438002  0.18955387  0.17551579     0.84500
C413        C  0.23145941  0.22568036  0.23988985     0.84800
O414        O  0.21451828  0.19561754  0.23117722    -0.80100
O415        O  0.15424569  0.25277815  0.44244918    -0.77600
C416        C  0.09770639  0.27885667  0.51143766     0.83400
O417        O  0.20592173  0.27605700  0.52642045    -0.78700
O418        O  0.09774589  0.19535138  0.56329089    -0.80200
O419        O  0.05902952  0.16417470  0.47857655    -0.80000
O420        O  0.14384956  0.20021551  0.44091855    -0.78600
Zn421      Zn  0.14044210  0.25700294  0.48133568     1.55700
O422        O  0.05589571  0.19373470  0.51409281    -0.80000
Cd423      Cd  0.11290049  0.18149684  0.47880328     1.59700
Cd424      Cd  0.16771735  0.22418795  0.52679263     1.59600
O425        O  0.12499706  0.14834799  0.49951307    -0.80000
O426        O  0.13134109  0.22062856  0.50340193    -1.90500
Cd427      Cd  0.10017895  0.22148965  0.52980138     1.59900
O428        O  0.17672968  0.18721773  0.51299213    -0.80000
O429        O  0.09994123  0.26555408  0.53376470    -0.78600
C430        C  0.20543188  0.29898261  0.51152993     0.83900
C431        C  0.15809207  0.23012968  0.43064269     0.83600
O432        O  0.10662779  0.27237934  0.48815751    -0.77600
C433        C  0.04236227  0.17285507  0.49489458     0.84400
O434        O  0.18169408  0.29288648  0.49518514    -0.77700
C435        C  0.15425333  0.15651158  0.50863683     0.84500
C436        C  0.11845054  0.18771707  0.57320747     0.84800
O437        O  0.14847709  0.20077805  0.56442271    -0.80100
O438        O  0.07694325  0.09796017  0.72613243    -0.77600
C439        C  0.49422933  0.07188261  0.65727414     0.83400
O440        O  0.10520999  0.07474295  0.64203037    -0.78700
O441        O  0.07778354  0.15540570  0.60530577    -0.80200
O442        O  0.07037263  0.18670401  0.69002044    -0.80000
O443        O  0.11909673  0.15056951  0.72770385    -0.78600
Zn444      Zn  0.05886998  0.09374823  0.68727688     1.55700
O445        O  0.03769272  0.15714279  0.65450015    -0.80000
Cd446      Cd  0.10685272  0.16928836  0.68983537     1.59700
Cd447      Cd  0.11890310  0.12660577  0.64172105     1.59600
O448        O  0.15215530  0.20237760  0.66910531    -0.80000
O449        O  0.08613062  0.13016549  0.66520861    -1.90500
Cd450      Cd  0.05411948  0.12932015  0.63884129     1.59900
O451        O  0.16490284  0.16346814  0.65559128    -0.80000
O452        O  0.50975901  0.08525340  0.63494148    -0.78600
C453        C  0.08182201  0.05180318  0.65697632     0.83900
C454        C  0.10344413  0.12062866  0.73794411     0.83600
O455        O  0.00964906  0.07832963  0.68053274    -0.77600
C456        C  0.04506247  0.17805823  0.67366723     0.84400
O457        O  0.06420820  0.05788020  0.67338158    -0.77700
C458        C  0.17321365  0.19417120  0.65998773     0.84500
C459        C  0.10616261  0.16312209  0.59536983     0.84800
O460        O  0.12316686  0.15013900  0.60413930    -0.80100
O461        O  0.09398455  0.35648379  0.44255112    -0.77600
C462        C  0.17673629  0.41312219  0.51147365     0.83400
O463        O  0.06573676  0.30487666  0.52658226    -0.78700
O464        O  0.09313711  0.41306336  0.56331636    -0.80200
O465        O  0.10040923  0.45158649  0.47871381    -0.80000
O466        O  0.05172461  0.36672241  0.44111266    -0.78600
Zn467      Zn  0.11208961  0.37032902  0.48141111     1.55700
O468        O  0.13327833  0.45484906  0.51410022    -0.80000
Cd469      Cd  0.06398848  0.39769158  0.47897951     1.59700
Cd470      Cd  0.05197540  0.34297918  0.52694473     1.59600
O471        O  0.01876400  0.38553344  0.49977628    -0.80000
O472        O  0.08478935  0.37936902  0.50351235    -1.90500
Cd473      Cd  0.11685071  0.41062378  0.52983865     1.59900
O474        O  0.00591494  0.33381363  0.51316877    -0.80000
O475        O  0.16118763  0.41094318  0.53380042    -0.78600
C476        C  0.08915129  0.30539047  0.51163870     0.83900
C477        C  0.06743124  0.35254530  0.43080003     0.83600
O478        O  0.16133709  0.40419137  0.48819929    -0.77600
C479        C  0.12580334  0.46832239  0.49497296     0.84400
O480        O  0.10675851  0.32911037  0.49524709    -0.77700
C481        C  0.49765762  0.35624560  0.50885250     0.84500
C482        C  0.06476384  0.39235281  0.57325456     0.84800
O483        O  0.04779396  0.36229761  0.56453482    -0.80100
O484        O  0.01656549  0.43396015  0.72606605    -0.77600
C485        C  0.07330006  0.01670867  0.65716336     0.83400
O486        O  0.46498262  0.40565821  0.64205274    -0.78700
O487        O  0.07314711  0.43307797  0.60527596    -0.80200
O488        O  0.11170490  0.44039666  0.68994006    -0.80000
O489        O  0.02682909  0.39172067  0.72753587    -0.78600
Zn490      Zn  0.03043933  0.45205824  0.68720402     1.55700
O491        O  0.11497285  0.47317102  0.65447742    -0.80000
Cd492      Cd  0.05780825  0.40397334  0.68967672     1.59700
Cd493      Cd  0.00309804  0.39192106  0.64170351     1.59600
O494        O  0.04565354  0.35873502  0.66890477    -0.80000
O495        O  0.03949401  0.42475853  0.66511589    -1.90500
Cd496      Cd  0.07074712  0.45679568  0.63876778     1.59900
O497        O  0.99393199  0.34587942  0.65550812    -0.80000
O498        O  0.07113848  0.00117205  0.63483342    -0.78600
C499        C  0.46549625  0.42908690  0.65697329     0.83900
C500        C  0.01263545  0.40741871  0.73783152     0.83600
O501        O  0.06432562  0.00129571  0.68042893    -0.77600
C502        C  0.12844438  0.46573975  0.67363406     0.84400
O503        O  0.48922443  0.44672454  0.67335011    -0.77700
C504        C  0.01636659  0.33762649  0.65982484     0.84500
C505        C  0.05244422  0.40468717  0.59536822     0.84800
O506        O  0.02240179  0.38770105  0.60412018    -0.80100
O507        O  0.25798129  0.41678940  0.44247875    -0.77600
C508        C  0.23200683  0.33408781  0.51134916     0.83400
O509        O  0.23476263  0.44500663  0.52663191    -0.78700
O510        O  0.31551917  0.41762348  0.56330025    -0.80200
O511        O  0.34676483  0.41029759  0.47855410    -0.80000
O512        O  0.31056841  0.45898679  0.44092139    -0.78600
Zn513      Zn  0.25380124  0.39872380  0.48134967     1.55700
O514        O  0.31723735  0.37759909  0.51407601    -0.80000
Cd515      Cd  0.32932224  0.44675664  0.47878228     1.59700
Cd516      Cd  0.28663705  0.45872933  0.52695152     1.59600
O517        O  0.36240610  0.49205873  0.49952537    -0.80000
O518        O  0.29021522  0.42599896  0.50342424    -1.90500
Cd519      Cd  0.28941302  0.39398628  0.52977276     1.59900
O520        O  0.32349825  0.00476791  0.51313042    -0.80000
O521        O  0.24537508  0.34960978  0.53368437    -0.78600
C522        C  0.21182889  0.42163152  0.51167105     0.83900
C523        C  0.28063215  0.44330866  0.43067181     0.83600
O524        O  0.23843839  0.34951581  0.48809531    -0.77600
C525        C  0.33813844  0.38498360  0.49489715     0.84400
O526        O  0.21791274  0.40403186  0.49525437    -0.77700
C527        C  0.35420094  0.01309804  0.50869396     0.84500
C528        C  0.32320214  0.44597970  0.57325971     0.84800
O529        O  0.31017406  0.46295722  0.56452438    -0.80100
O530        O  0.41281721  0.49409818  0.72615056    -0.77600
C531        C  0.43894340  0.43761216  0.65717537     0.83400
O532        O  0.43621252  0.04578841  0.64215984    -0.78700
O533        O  0.35538363  0.43755158  0.60537566    -0.80200
O534        O  0.32419928  0.39897304  0.69002033    -0.80000
O535        O  0.36028608  0.48381756  0.72762122    -0.78600
Zn536      Zn  0.41707598  0.48032136  0.68727366     1.55700
O537        O  0.35387943  0.39582463  0.65460725    -0.80000
Cd538      Cd  0.34155321  0.45284904  0.68975312     1.59700
Cd539      Cd  0.38432929  0.50761263  0.64176142     1.59600
O540        O  0.30844762  0.46497030  0.66898738    -0.80000
O541        O  0.38071971  0.47125517  0.66519667    -1.90500
Cd542      Cd  0.38157955  0.44006634  0.63884043     1.59900
O543        O  0.34735348  0.51667368  0.65548153    -0.80000
O544        O  0.42565603  0.43986793  0.63484712    -0.78600
C545        C  0.45912001  0.04530653  0.65708373     0.83900
C546        C  0.39018863  0.49800833  0.73792024     0.83600
O547        O  0.43243292  0.44649204  0.68045991    -0.77600
C548        C  0.33294322  0.38230237  0.67376758     0.84400
O549        O  0.45300015  0.02157872  0.67344843    -0.77700
C550        C  0.31663645  0.49422148  0.65983639     0.84500
C551        C  0.34780716  0.45827549  0.59541107     0.84800
O552        O  0.36094303  0.48833241  0.60413372    -0.80100
O553        O  0.41022758  0.26458798  0.05938684    -0.77600
C554        C  0.32748665  0.23855165  0.99055601     0.83400
O555        O  0.43840790  0.24133567  0.97524024    -0.78700
O556        O  0.41097995  0.32207506  0.93861962    -0.80200
O557        O  0.40369290  0.35334899  0.02331056    -0.80000
O558        O  0.45241498  0.31718328  0.06092661    -0.78600
Zn559      Zn  0.39213310  0.26036987  0.02053243     1.55700
O560        O  0.37093165  0.32374555  0.98784364    -0.80000
Cd561      Cd  0.44015026  0.33590845  0.02307288     1.59700
Cd562      Cd  0.45210970  0.29319763  0.97492884     1.59600
O563        O  0.48542620  0.36898977  0.00230271    -0.80000
O564        O  0.41938639  0.29677817  0.99845967    -1.90500
Cd565      Cd  0.38735001  0.29595208  0.97213365     1.59900
O566        O  0.49815205  0.33008747  0.98872069    -0.80000
O567        O  0.34300089  0.25190162  0.96821476    -0.78600
C568        C  0.41503813  0.21840046  0.99020188     0.83900
C569        C  0.43675014  0.28724955  0.07118057     0.83600
O570        O  0.34292213  0.24500264  0.01380720    -0.77600
C571        C  0.37834526  0.34468232  0.00699768     0.84400
O572        O  0.39744084  0.22448026  0.00662563    -0.77700
C573        C  0.00647203  0.36078949  0.99314249     0.84500
C574        C  0.43932922  0.32974612  0.92864893     0.84800
O575        O  0.45629754  0.31669926  0.93735976    -0.80100
O576        O  0.48754863  0.41944330  0.77580293    -0.77600
C577        C  0.43096962  0.44548886  0.84475820     0.83400
O578        O  0.03916104  0.44274305  0.85981920    -0.78700
O579        O  0.43091734  0.36195644  0.89655916    -0.80200
O580        O  0.39234380  0.33077893  0.81190765    -0.80000
O581        O  0.47721478  0.36689873  0.77429132    -0.78600
Zn582      Zn  0.47372402  0.42365874  0.81467891     1.55700
O583        O  0.38919989  0.36043451  0.84734123    -0.80000
Cd584      Cd  0.44622827  0.34814312  0.81215931     1.59700
Cd585      Cd  0.50097860  0.39087266  0.86018000     1.59600
O586        O  0.45833171  0.31501700  0.83291026    -0.80000
O587        O  0.46463418  0.38728728  0.83673879    -1.90500
Cd588      Cd  0.43344300  0.38814727  0.86309658     1.59900
O589        O  0.51002858  0.35389266  0.84646058    -0.80000
O590        O  0.43322226  0.43220623  0.86708893    -0.78600
C591        C  0.03868227  0.46566372  0.84491472     0.83900
C592        C  0.49143764  0.39681232  0.76401280     0.83600
O593        O  0.43987648  0.43899518  0.82147888    -0.77600
C594        C  0.37567247  0.33950376  0.82817894     0.84400
O595        O  0.01496208  0.45956208  0.82854622    -0.77700
C596        C  0.48756985  0.32318465  0.84208309     0.84500
C597        C  0.45162996  0.35436038  0.90651314     0.84800
O598        O  0.48168653  0.36748307  0.89779200    -0.80100
O599        O  0.34994771  0.10059181  0.05930544    -0.77600
C600        C  0.40653258  0.18331152  0.99039104     0.83400
O601        O  0.29824312  0.07230017  0.97535412    -0.78700
O602        O  0.40635695  0.09966735  0.93852945    -0.80200
O603        O  0.44499925  0.10700500  0.02311562    -0.80000
O604        O  0.36016963  0.05832104  0.06073043    -0.78600
Zn605      Zn  0.36375895  0.11868416  0.02045154     1.55700
O606        O  0.44824288  0.13984392  0.98771216    -0.80000
Cd607      Cd  0.39111364  0.07057695  0.02286034     1.59700
Cd608      Cd  0.33633629  0.05853167  0.97497069     1.59600
O609        O  0.37894208  0.02534979  0.00206871    -0.80000
O610        O  0.37276810  0.09137110  0.99834939    -1.90500
Cd611      Cd  0.40399285  0.12341663  0.97200567     1.59900
O612        O  0.32718465  0.01249431  0.98878380    -0.80000
O613        O  0.40431597  0.16775692  0.96805894    -0.78600
C614        C  0.29878629  0.09573916  0.99028111     0.83900
C615        C  0.34600622  0.07403558  0.07104937     0.83600
O616        O  0.39763521  0.16791844  0.01366774    -0.77600
C617        C  0.46172572  0.13238764  0.00684601     0.84400
O618        O  0.32253263  0.11336786  0.00664486    -0.77700
C619        C  0.34962544  0.00423622  0.99305085     0.84500
C620        C  0.38564315  0.07127610  0.92862511     0.84800
O621        O  0.35559983  0.05430112  0.93737409    -0.80100
O622        O  0.42731850  0.02311599  0.77587326    -0.77600
C623        C  0.01002705  0.07978418  0.84481004     0.83400
O624        O  0.39898170  0.47149537  0.85986750    -0.78700
O625        O  0.42636490  0.07963253  0.89661997    -0.80200
O626        O  0.43373052  0.11823690  0.81201679    -0.80000
O627        O  0.38508065  0.03338573  0.77439257    -0.78600
Zn628      Zn  0.44539872  0.03696717  0.81473371     1.55700
O629        O  0.46653144  0.12148469  0.84745173    -0.80000
Cd630      Cd  0.39730901  0.06433793  0.81225756     1.59700
Cd631      Cd  0.38522610  0.00959419  0.86020120     1.59600
O632        O  0.35205239  0.05215254  0.83301121    -0.80000
O633        O  0.41808036  0.04600259  0.83680697    -1.90500
Cd634      Cd  0.45011325  0.07724279  0.86315517     1.59900
O635        O  0.33919546  0.00041599  0.84635788    -0.80000
O636        O  0.99446548  0.07759652  0.86713139    -0.78600
C637        C  0.42242194  0.47202295  0.84495282     0.83900
C638        C  0.40078306  0.01919461  0.76410200     0.83600
O639        O  0.49463763  0.07084084  0.82153302    -0.77600
C640        C  0.45908943  0.13496828  0.82831099     0.84400
O641        O  0.44005796  0.49575394  0.82858029    -0.77700
C642        C  0.33093952  0.02285044  0.84205707     0.84500
C643        C  0.39796634  0.05893678  0.90652155     0.84800
O644        O  0.38097731  0.02889410  0.89777596    -0.80100
O645        O  0.24620844  0.16083565  0.05948067    -0.77600
C646        C  0.27225356  0.10429282  0.99049651     0.83400
O647        O  0.26945354  0.21247480  0.97550260    -0.78700
O648        O  0.18871459  0.10429595  0.93870790    -0.80200
O649        O  0.15754078  0.06560891  0.02335764    -0.80000
O650        O  0.19364662  0.15045296  0.06102548    -0.78600
Zn651      Zn  0.25040861  0.14701628  0.02060449     1.55700
O652        O  0.18716770  0.06250242  0.98788294    -0.80000
Cd653      Cd  0.17488957  0.11949219  0.02315146     1.59700
Cd654      Cd  0.21758332  0.17429232  0.97516071     1.59600
O655        O  0.14175692  0.13162361  0.00244611    -0.80000
O656        O  0.21402482  0.13792802  0.99856054    -1.90500
Cd657      Cd  0.21489431  0.10677326  0.97216967     1.59900
O658        O  0.18064193  0.18334487  0.98896000    -0.80000
O659        O  0.25895931  0.10655244  0.96817417    -0.78600
C660        C  0.29238252  0.21198320  0.99038708     0.83900
C661        C  0.22356942  0.16469746  0.07128708     0.83600
O662        O  0.26576998  0.11319221  0.01378363    -0.77600
C663        C  0.16625136  0.04895378  0.00705279     0.84400
O664        O  0.28628995  0.18825346  0.00673846    -0.77700
C665        C  0.14993162  0.16087881  0.99331321     0.84500
C666        C  0.18106475  0.12498746  0.92879172     0.84800
O667        O  0.19413734  0.15502206  0.93755351    -0.80100
O668        O  0.09136525  0.08349918  0.77589747    -0.77600
C669        C  0.06525918  0.50076680  0.84474284     0.83400
O670        O  0.06804985  0.11169839  0.85997460    -0.78700
O671        O  0.14875874  0.08430881  0.89670856    -0.80200
O672        O  0.18005223  0.07692698  0.81200466    -0.80000
O673        O  0.14395963  0.12568949  0.77437779    -0.78600
Zn674      Zn  0.08712117  0.06540087  0.81474923     1.55700
O675        O  0.15047705  0.04419790  0.84749762    -0.80000
Cd676      Cd  0.16265029  0.11340762  0.81223716     1.59700
Cd677      Cd  0.11992177  0.12541376  0.86031741     1.59600
O678        O  0.19573260  0.15868117  0.83299870    -0.80000
O679        O  0.12350974  0.09265795  0.83683826    -1.90500
Cd680      Cd  0.12266922  0.06063550  0.86318510     1.59900
O681        O  0.15680707  0.17142643  0.84646937    -0.80000
O682        O  0.07859728  0.51629028  0.86708514    -0.78600
C683        C  0.04512364  0.08830899  0.84502004     0.83900
C684        C  0.11403280  0.11002662  0.76411306     0.83600
O685        O  0.07173636  0.01619066  0.82148545    -0.77600
C686        C  0.17139253  0.05158926  0.82832539     0.84400
O687        O  0.05121880  0.07070206  0.82862137    -0.77700
C688        C  0.18751711  0.17974129  0.84209086     0.84500
C689        C  0.15644827  0.11267639  0.90665069     0.84800
O690        O  0.14342760  0.12965516  0.89790247    -0.80100
O691        O  0.27325442  0.18275081  0.65489880    -0.77600
C692        C  0.32486756  0.27661728  0.59749877     0.83400
O693        O  0.37257963  0.27836765  0.69329116    -0.78700
O694        O  0.29189851  0.32529202  0.66647072    -0.80200
O695        O  0.22260798  0.21082499  0.68086881    -0.80000
O696        O  0.26647958  0.18285935  0.70049966    -0.78600
Zn697      Zn  0.30712242  0.23199269  0.64812865     1.55700
O698        O  0.22585252  0.24364809  0.64545273    -0.80000
Cd699      Cd  0.26684222  0.22721881  0.69657839     1.59700
Cd700      Cd  0.33446761  0.29211399  0.69365445     1.59600
O701        O  0.26441126  0.25090696  0.73007203    -0.80000
O702        O  0.29807755  0.25928113  0.67023653    -1.90500
Cd703      Cd  0.27974273  0.28006271  0.64569590     1.59900
O704        O  0.31513274  0.29631829  0.73122919    -0.80000
O705        O  0.31068036  0.29231369  0.60781086    -0.78600
C706        C  0.37206687  0.25495540  0.67834652     0.83900
C707        C  0.26429918  0.16733024  0.67816111     0.83600
O708        O  0.32096188  0.25008625  0.60926483    -0.77600
C709        C  0.20912465  0.21828073  0.66173675     0.84400
O710        O  0.34834138  0.23733681  0.66196313    -0.77700
C711        C  0.28508851  0.27931020  0.73997339     0.84500
C712        C  0.32119521  0.34640582  0.67552507     0.84800
O713        O  0.34363100  0.33815322  0.67983983    -0.80100
O714        O  0.17609262  0.27976435  0.84709068    -0.77600
C715        C  0.27001687  0.33142549  0.90445872     0.83400
O716        O  0.27168971  0.37908312  0.80869626    -0.78700
O717        O  0.31866494  0.29844049  0.83548856    -0.80200
O718        O  0.20416100  0.22912010  0.82118614    -0.80000
O719        O  0.17623991  0.27300967  0.80148892    -0.75000
Zn720      Zn  0.22533747  0.31363562  0.85386479     1.55700
O721        O  0.23702237  0.23238772  0.85657991    -0.80000
Cd722      Cd  0.22058836  0.27334258  0.80544136     1.59700
Cd723      Cd  0.28545737  0.34099490  0.80835803     1.59600
O724        O  0.24434415  0.27092030  0.77198035    -0.80000
O725        O  0.25263465  0.30459528  0.83177077    -1.90500
Cd726      Cd  0.27344526  0.28627717  0.85629405     1.59900
O727        O  0.28968430  0.32169125  0.77078420    -0.80000
O728        O  0.28572107  0.31724614  0.89414982    -0.78600
C729        C  0.24826688  0.37856398  0.82362926     0.83900
C730        C  0.16069204  0.27083107  0.82381773     0.83600
O731        O  0.24346190  0.32748748  0.89271143    -0.77600
C732        C  0.21162803  0.21565088  0.84032207     0.84400
O733        O  0.23065668  0.35484638  0.84002182    -0.77700
C734        C  0.27273094  0.29163525  0.76206444     0.84500
C735        C  0.33976992  0.32774477  0.82644284     0.84800
O736        O  0.33150609  0.35017736  0.82216020    -0.80100
O737        O  0.23081188  0.41159944  0.84709188    -0.77600
C738        C  0.17932480  0.45382033  0.90455590     0.83400
O739        O  0.13152256  0.40789467  0.80878340    -0.78700
O740        O  0.21238315  0.03560603  0.83570419    -0.80200
O741        O  0.28149389  0.99016769  0.82116564    -0.80000
O742        O  0.23744598  0.41836002  0.80148007    -0.78600
Zn743      Zn  0.19698747  0.42696158  0.85388383     1.55700
O744        O  0.27838160  0.01982267  0.85661612    -0.80000
Cd745      Cd  0.23722698  0.46242632  0.80544164     1.59700
Cd746      Cd  0.16971437  0.45977369  0.80841631     1.59600
O747        O  0.23973076  0.48857028  0.77194969    -0.80000
O748        O  0.20607236  0.46332960  0.83182026    -1.90500
Cd749      Cd  0.22450594  0.00247152  0.85640360     1.59900
O750        O  0.18903186  0.48322199  0.77081113    -0.80000
O751        O  0.19355817  0.48373545  0.89428284    -0.78600
C752        C  0.13200786  0.38497394  0.82368553     0.83900
C753        C  0.23970900  0.40509143  0.82381520     0.83600
O754        O  0.18318738  0.43118013  0.89275685    -0.77600
C755        C  0.29503820  0.01109951  0.84032654     0.84400
O756        O  0.15574192  0.39107405  0.84003572    -0.77700
C757        C  0.21906184  0.49625184  0.76203709     0.84500
C758        C  0.18312131  0.02743087  0.82658821     0.84800
O759        O  0.16066023  0.99672232  0.82221816    -0.80100
O760        O  0.32788933  0.10567383  0.65473832    -0.77600
C761        C  0.23404558  0.06338837  0.59734201     0.83400
O762        O  0.23239001  0.10929939  0.69328984    -0.78700
O763        O  0.18540515  0.48165297  0.66622294    -0.80200
O764        O  0.29987280  0.52687501  0.68071879    -0.80000
O765        O  0.32779027  0.09873375  0.70032938    -0.78600
Zn766      Zn  0.27867017  0.09027067  0.64799552     1.55700
O767        O  0.26715554  0.49731821  0.64521508    -0.80000
Cd768      Cd  0.28343491  0.05466567  0.69641967     1.59700
Cd769      Cd  0.21868794  0.05743928  0.69359240     1.59600
O770        O  0.25974263  0.02852273  0.72993097    -0.80000
O771        O  0.25142525  0.05385908  0.67007301    -1.90500
Cd772      Cd  0.23067674  0.01473721  0.64544889     1.59900
O773        O  0.21444723  0.03393608  0.73117229    -0.80000
O774        O  0.21839522  0.03345275  0.60759291    -0.78600
C775        C  0.25576611  0.13223380  0.67833354     0.83900
C776        C  0.34331320  0.11211339  0.67799550     0.83600
O777        O  0.26056300  0.08605596  0.60913968    -0.77600
C778        C  0.29248579  0.50596528  0.66154513     0.84400
O779        O  0.27335674  0.12614924  0.66190714    -0.77700
C780        C  0.23139189  0.02086824  0.73989440     0.84500
C781        C  0.16435548  0.48985212  0.67537650     0.84800
O782        O  0.17266555  0.02055442  0.67977937    -0.80100
O783        O  0.09898711  0.33446167  0.84714459    -0.77600
C784        C  0.05676643  0.24065251  0.90456234     0.83400
O785        O  0.10266057  0.23892936  0.80868069    -0.78700
O786        O  0.47499571  0.19193245  0.83571833    -0.80200
O787        O  0.52020065  0.30640501  0.82118777    -0.80000
O788        O  0.09205782  0.33433231  0.80155291    -0.78600
Zn789      Zn  0.08362138  0.28525559  0.85390621     1.55700
O790        O  0.49066478  0.27370481  0.85670564    -0.80000
Cd791      Cd  0.04800553  0.28997969  0.80549860     1.59700
Cd792      Cd  0.05079592  0.22522873  0.80834726     1.59600
O793        O  0.02190910  0.26629842  0.77198732    -0.80000
O794        O  0.04720635  0.25797561  0.83184386    -1.90500
Cd795      Cd  0.00808429  0.23722665  0.85646879     1.59900
O796        O  0.02731746  0.22100011  0.77075264    -0.80000
O797        O  0.02683084  0.22497591  0.89431389    -0.78600
C798        C  0.12559970  0.26232394  0.82362178     0.83900
C799        C  0.10542697  0.34987146  0.82388133     0.83600
O800        O  0.07941662  0.26718374  0.89276863    -0.77600
C801        C  0.49930174  0.29902630  0.84036884     0.84400
O802        O  0.11952077  0.27994579  0.84001823    -0.77700
C803        C  0.01426898  0.23795782  0.76201748     0.84500
C804        C  0.48320058  0.17088396  0.82657207     0.84800
O805        O  0.51390535  0.17920264  0.82216323    -0.80100
O806        O  0.40510215  0.23753399  0.65483687    -0.77600
C807        C  0.44727263  0.18600797  0.59731638     0.83400
O808        O  0.40134058  0.13819614  0.69307509    -0.78700
O809        O  0.02907945  0.21903764  0.66619965    -0.80200
O810        O  0.98369611  0.28818691  0.68071948    -0.80000
O811        O  0.41189837  0.24414640  0.70044770    -0.78600
Zn812      Zn  0.42043688  0.20369060  0.64800067     1.55700
O813        O  0.01332418  0.28506024  0.64525490    -0.80000
Cd814      Cd  0.45595548  0.24392207  0.69643355     1.59700
Cd815      Cd  0.45321770  0.17637759  0.69346164     1.59600
O816        O  0.48209713  0.24638189  0.72990407    -0.80000
O817        O  0.45681194  0.21275123  0.67005222    -1.90500
Cd818      Cd  0.99595931  0.23117426  0.64547242     1.59900
O819        O  0.47660129  0.19562669  0.73109485    -0.80000
O820        O  0.47718721  0.20021360  0.60759450    -0.78600
C821        C  0.37841938  0.13869354  0.67818240     0.83900
C822        C  0.39860963  0.24641757  0.67812765     0.83600
O823        O  0.42464825  0.18990381  0.60911161    -0.77600
C824        C  0.00461692  0.30172487  0.66155133     0.84400
O825        O  0.38452358  0.16243605  0.66183968    -0.77700
C826        C  0.48969237  0.22566551  0.73985035     0.84500
C827        C  0.02090160  0.18979085  0.67535606     0.84800
O828        O  0.99018911  0.16733149  0.67971430    -0.80100
O829        O  0.34277598  0.61316715  0.51370508    -0.77600
C830        C  0.43665823  0.66481828  0.57113216     0.83400
O831        O  0.43840246  0.71247877  0.47533868    -0.78700
O832        O  0.48534637  0.63182450  0.50221744    -0.80200
O833        O  0.37085119  0.56248839  0.48780352    -0.80000
O834        O  0.34293174  0.60638382  0.46810771    -0.78600
Zn835      Zn  0.39202037  0.64702878  0.52050388     1.55700
O836        O  0.40367185  0.56575545  0.52322975    -0.80000
Cd837      Cd  0.38727821  0.60672058  0.47207507     1.59700
Cd838      Cd  0.45216459  0.67437083  0.47499208     1.59600
O839        O  0.41100678  0.60428948  0.43859942    -0.80000
O840        O  0.41932403  0.63798034  0.49841306    -1.90500
Cd841      Cd  0.44009735  0.61965473  0.52297231     1.59900
O842        O  0.45638386  0.65503299  0.43741377    -0.80000
O843        O  0.45235109  0.65062160  0.56083312    -0.78600
C844        C  0.41498025  0.71196405  0.49027332     0.83900
C845        C  0.32737981  0.60421613  0.49043083     0.83600
O846        O  0.41011672  0.66089523  0.55936947    -0.77600
C847        C  0.37830303  0.54901551  0.50694646     0.84400
O848        O  0.39736149  0.68824066  0.50665722    -0.77700
C849        C  0.43939641  0.62498359  0.42867889     0.84500
C850        C  0.00646209  0.66111523  0.49315162     0.84800
O851        O  0.49821019  0.68354823  0.48882194    -0.80100
O852        O  0.43973866  0.51599694  0.32149113    -0.77600
C853        C  0.49144715  0.60989288  0.26411800     0.83400
O854        O  0.03912430  0.61158351  0.35983008    -0.78700
O855        O  0.45847480  0.65858738  0.33307840    -0.80200
O856        O  0.38914441  0.54409715  0.34745043    -0.80000
O857        O  0.43305001  0.01616291  0.36709970    -0.78600
Zn858      Zn  0.47362511  0.56522934  0.31471280     1.55700
O859        O  0.39240217  0.57692049  0.31202886    -0.80000
Cd860      Cd  0.43338220  0.56051235  0.36316581     1.59700
Cd861      Cd  0.50103928  0.62537605  0.36021669     1.59600
O862        O  0.43099431  0.58425090  0.39665395    -0.80000
O863        O  0.46461806  0.59255198  0.33681810    -1.90500
Cd864      Cd  0.44629831  0.61335354  0.31228667     1.59900
O865        O  0.48175672  0.62960487  0.39781522    -0.80000
O866        O  0.47728263  0.62561131  0.27442969    -0.78600
C867        C  0.03858227  0.58814515  0.34490063     0.83900
C868        C  0.43084097  0.00060706  0.34476911     0.83600
O869        O  0.48747679  0.58332361  0.27585835    -0.77600
C870        C  0.37566826  0.55154705  0.32830812     0.84400
O871        O  0.01483866  0.57052418  0.32853166    -0.77700
C872        C  0.45171135  0.61263723  0.40656534     0.84500
C873        C  0.48777730  0.67969378  0.34213064     0.84800
O874        O  0.51021159  0.67143150  0.34641859    -0.80100
O875        O  0.49448992  0.93890092  0.32139768    -0.77600
C876        C  0.40071786  0.89668453  0.26398371     0.83400
O877        O  0.39896015  0.94258100  0.35991087    -0.78700
O878        O  0.35195920  0.81493355  0.33285920    -0.80200
O879        O  0.46638067  0.86009871  0.34745152    -0.80000
O880        O  0.99441934  0.93199673  0.36698811    -0.78600
Zn881      Zn  0.44528293  0.92355281  0.31466729     1.55700
O882        O  0.43371208  0.83057862  0.31191266    -0.80000
Cd883      Cd  0.45002475  0.88797254  0.36310527     1.59700
Cd884      Cd  0.38525912  0.89071946  0.36024079     1.59600
O885        O  0.42640373  0.86193656  0.39665629    -0.80000
O886        O  0.41801022  0.88714300  0.33674217    -1.90500
Cd887      Cd  0.39725872  0.84801966  0.31211548     1.59900
O888        O  0.38102555  0.86721144  0.39782444    -0.80000
O889        O  0.38504033  0.86675069  0.27423690    -0.78600
C890        C  0.42234692  0.96552105  0.34496462     0.83900
C891        C  0.00993188  0.94534210  0.34464527     0.83600
O892        O  0.42722398  0.91934478  0.27579737    -0.77600
C893        C  0.45900761  0.83919654  0.32827503     0.84400
O894        O  0.43996946  0.95944893  0.32856175    -0.77700
C895        C  0.39803078  0.85423078  0.40659437     0.84500
C896        C  0.33091178  0.82313943  0.34200555     0.84800
O897        O  0.33923366  0.85384350  0.34641529    -0.80100
O898        O  0.39750448  0.74496766  0.51376732    -0.77600
C899        C  0.34602984  0.78721191  0.57129794     0.83400
O900        O  0.29822835  0.74126625  0.47547791    -0.78700
O901        O  0.37910335  0.86899110  0.50237584    -0.80200
O902        O  0.44822994  0.82358548  0.48793502    -0.80000
O903        O  0.40420479  0.75182054  0.46816390    -0.78600
Zn904      Zn  0.36368308  0.76033745  0.52060578     1.55700
O905        O  0.44508315  0.85321091  0.52339025    -0.80000
Cd906      Cd  0.40397976  0.79588160  0.47218147     1.59700
Cd907      Cd  0.33643197  0.79312860  0.47510199     1.59600
O908        O  0.40648085  0.82208806  0.43872967    -0.80000
O909        O  0.37278168  0.79671599  0.49854764    -1.90500
Cd910      Cd  0.39120099  0.83586170  0.52313207     1.59900
O911        O  0.35568465  0.81649130  0.43746858    -0.80000
O912        O  0.36023940  0.81712156  0.56101284    -0.78600
C913        C  0.29869685  0.71834547  0.49038933     0.83900
C914        C  0.40643193  0.73850281  0.49048400     0.83600
O915        O  0.34990474  0.76457633  0.55949859    -0.77600
C916        C  0.46175583  0.84449603  0.50711094     0.84400
O917        O  0.32241766  0.72444518  0.50675702    -0.77700
C918        C  0.38574654  0.82964280  0.42875432     0.84500
C919        C  0.34987120  0.86082784  0.49318971     0.84800
O920        O  0.32740789  0.83012196  0.48881351    -0.80100
O921        O  0.07157353  0.57065041  0.32140065    -0.77600
C922        C  0.11388447  0.51921253  0.26388508     0.83400
O923        O  0.06796623  0.97144623  0.35972093    -0.78700
O924        O  0.19566289  0.55233549  0.33275266    -0.80200
O925        O  0.15022036  0.62143558  0.34725257    -0.80000
O926        O  0.07844946  0.57737821  0.36700205    -0.78600
Zn927      Zn  0.08699631  0.53686789  0.31456893     1.55700
O928        O  0.17984880  0.61830988  0.31178866    -0.80000
Cd929      Cd  0.12252800  0.57717670  0.36300216     1.59700
Cd930      Cd  0.11983508  0.50965630  0.36006607     1.59600
O931        O  0.14874708  0.57969741  0.39646537    -0.80000
O932        O  0.12338369  0.54599499  0.33662839    -1.90500
Cd933      Cd  0.16251857  0.56443165  0.31203048     1.59900
O934        O  0.14326270  0.52894817  0.39768273    -0.80000
O935        O  0.14380145  0.53346818  0.27415662    -0.78600
C936        C  0.04504086  0.97190837  0.34480876     0.83900
C937        C  0.06511623  0.57958684  0.34468301     0.83600
O938        O  0.09122898  0.52305326  0.27568839    -0.77600
C939        C  0.17113013  0.63497246  0.32807667     0.84400
O940        O  0.05113728  0.99561827  0.32843440    -0.77700
C941        C  0.15636387  0.55899695  0.40641875     0.84500
C942        C  0.18750405  0.52309482  0.34191122     0.84800
O943        O  0.15680101  0.50062645  0.34629070    -0.80100
O944        O  0.26565655  0.66780380  0.51380542    -0.77600
C945        C  0.22343631  0.57398378  0.57117487     0.83400
O946        O  0.26935024  0.57229842  0.47528297    -0.78700
O947        O  0.14168969  0.52528938  0.50231828    -0.80200
O948        O  0.18685185  0.63970598  0.48771834    -0.80000
O949        O  0.25877387  0.66772834  0.46820968    -0.78600
Zn950      Zn  0.25029320  0.61859555  0.52051991     1.55700
O951        O  0.15736048  0.60705226  0.52327563    -0.80000
Cd952      Cd  0.21472470  0.62333848  0.47205919     1.59700
Cd953      Cd  0.21747376  0.55857013  0.47495308     1.59600
O954        O  0.18868920  0.59969479  0.43849468    -0.80000
O955        O  0.21389312  0.59133123  0.49843068    -1.90500
Cd956      Cd  0.17477623  0.57058051  0.52306155     1.59900
O957        O  0.19393636  0.55429940  0.43737033    -0.80000
O958        O  0.19350011  0.55832184  0.56092477    -0.78600
C959        C  0.29228414  0.59569672  0.49022625     0.83900
C960        C  0.27211861  0.68324050  0.49055516     0.83600
O961        O  0.24609498  0.60050149  0.55937397    -0.77600
C962        C  0.16596959  0.63234438  0.50691222     0.84400
O963        O  0.28619661  0.61331013  0.50662447    -0.77700
C964        C  0.18096666  0.57130681  0.42857732     0.84500
C965        C  0.14990747  0.50423571  0.49321287     0.84800
O966        O  0.18061716  0.51255908  0.48882332    -0.80100
O967        O  0.16119431  0.77229550  0.98808644    -0.77600
C968        C  0.06738232  0.73005648  0.93072114     0.83400
O969        O  0.06563626  0.77594374  0.02658372    -0.78700
O970        O  0.01870729  0.64830137  0.99953518    -0.80200
O971        O  0.13312264  0.69349769  0.01419695    -0.80000
O972        O  0.16111559  0.76542551  0.03368302    -0.78600
Zn973      Zn  0.11198501  0.75692592  0.98137280     1.55700
O974        O  0.10048586  0.66399305  0.97863639    -0.80000
Cd975      Cd  0.11674080  0.72137649  0.02982553     1.59700
Cd976      Cd  0.05193297  0.72407610  0.02690447     1.59600
O977        O  0.09310800  0.69537485  0.06339340    -0.80000
O978        O  0.08472670  0.72051997  0.00345050    -1.90500
Cd979      Cd  0.06400842  0.68140351  0.97882090     1.59900
O980        O  0.04766319  0.70054270  0.06448626    -0.80000
O981        O  0.05174404  0.70011590  0.94096098    -0.78600
C982        C  0.08904809  0.79888699  0.01165650     0.83900
C983        C  0.17662975  0.77875981  0.01133762     0.83600
O984        O  0.09388933  0.75272698  0.94252451    -0.77600
C985        C  0.12576855  0.67260481  0.99501289     0.84400
O986        O  0.10668263  0.79281337  0.99527202    -0.77700
C987        C  0.06470489  0.68761962  0.07329747     0.84500
C988        C  0.49763465  0.65650630  0.00861584     0.84800
O989        O  0.00594013  0.68721025  0.01300431    -0.80100
O990        O  0.06419884  0.57829045  0.18043828    -0.77600
C991        C  0.01266488  0.62050711  0.23794970     0.83400
O992        O  0.46493666  0.57462477  0.14216310    -0.78700
O993        O  0.04582458  0.70233219  0.16911176    -0.80200
O994        O  0.11493819  0.65691477  0.15459961    -0.80000
O995        O  0.07086176  0.58514901  0.13483207    -0.78600
Zn996      Zn  0.03038739  0.59367290  0.18727872     1.55700
O997        O  0.11180783  0.68651392  0.19008420    -0.80000
Cd998      Cd  0.07067091  0.62922872  0.13885727     1.59700
Cd999      Cd  0.00312846  0.62649510  0.14182184     1.59600
O1000       O  0.07314919  0.65544699  0.10541211    -0.80000
O1001       O  0.03949110  0.63006319  0.16523769    -1.90500
Cd1002     Cd  0.05792307  0.66919037  0.18983874     1.59900
O1003       O  0.02237136  0.64989936  0.10419599    -0.80000
O1004       O  0.02691752  0.65043094  0.22769142    -0.78600
C1005       C  0.46542508  0.55169439  0.15704677     0.83900
C1006       C  0.07309972  0.57182192  0.15714368     0.83600
O1007       O  0.01654516  0.59787427  0.22615257    -0.77600
C1008       C  0.12847388  0.67780712  0.17378720     0.84400
O1009       O  0.48914958  0.55779078  0.17340649    -0.77700
C1010       C  0.05242267  0.66302853  0.09545937     0.84500
C1011       C  0.01657803  0.69416762  0.15996007     0.84800
O1012       O  0.99410503  0.66346193  0.15560022    -0.80100
O1013       O  0.23837348  0.90411129  0.98809144    -0.77600
C1014       C  0.28062591  0.85261503  0.93063709     0.83400
O1015       O  0.23465149  0.80484877  0.02641844    -0.78700
O1016       O  0.36238752  0.88567957  0.99955577    -0.80200
O1017       O  0.31691983  0.95479814  0.01393724    -0.80000
O1018       O  0.24515518  0.91074315  0.03370273    -0.78600
Zn1019     Zn  0.25374508  0.87029305  0.98128703     1.55700
O1020       O  0.34663524  0.95167649  0.97854103    -0.80000
Cd1021     Cd  0.28923571  0.91055326  0.02970224     1.59700
Cd1022     Cd  0.28651906  0.84302911  0.02678180     1.59600
O1023       O  0.31546582  0.91308949  0.06314706    -0.80000
O1024       O  0.29011181  0.87937791  0.00334642    -1.90500
Cd1025     Cd  0.32927844  0.89779689  0.97879035     1.59900
O1026       O  0.30991869  0.86231411  0.06439318    -0.80000
O1027       O  0.31053776  0.86682635  0.94092006    -0.78600
C1028       C  0.21173655  0.80532573  0.01150401     0.83900
C1029       C  0.23186808  0.91299912  0.01137416     0.83600
O1030       O  0.25799337  0.85650588  0.94242056    -0.77600
C1031       C  0.33787376  0.96833564  0.99479092     0.84400
O1032       O  0.21784473  0.82904373  0.99513323    -0.77700
C1033       C  0.32306053  0.89237619  0.07310294     0.84500
C1034       C  0.35419942  0.85642806  0.00870481     0.84800
O1035       O  0.32348332  0.83397165  0.01305258    -0.80100
O1036       O  0.43242464  0.50112178  0.18043357    -0.77600
C1037       C  0.39014671  0.90728499  0.23779988     0.83400
O1038       O  0.43606481  0.90561107  0.14185275    -0.78700
O1039       O  0.30843043  0.85862308  0.16892941    -0.80200
O1040       O  0.35362631  0.97305885  0.15437341    -0.80000
O1041       O  0.42552660  0.50108721  0.13484291    -0.78600
Zn1042     Zn  0.41704705  0.95190349  0.18714070     1.55700
O1043       O  0.32409007  0.94036193  0.18989414    -0.80000
Cd1044     Cd  0.38149265  0.95669552  0.13869992     1.59700
Cd1045     Cd  0.38420284  0.89190099  0.14155569     1.59600
O1046       O  0.35543505  0.93307396  0.10515070    -0.80000
O1047       O  0.38064708  0.92466285  0.16505124    -1.90500
Cd1048     Cd  0.34152232  0.90390793  0.18967218     1.59900
O1049       O  0.36065807  0.88766443  0.10399751    -0.80000
O1050       O  0.36021458  0.89164097  0.22754296    -0.78600
C1051       C  0.45900126  0.92899237  0.15680484     0.83900
C1052       C  0.43886829  0.51658143  0.15719435     0.83600
O1053       O  0.41282726  0.93378829  0.22599570    -0.77600
C1054       C  0.33271745  0.96567171  0.17354853     0.84400
O1055       O  0.45292397  0.94659437  0.17322363    -0.77700
C1056       C  0.34768874  0.90468104  0.09523214     0.84500
C1057       C  0.31663701  0.83756422  0.15981787     0.84800
O1058       O  0.34734204  0.84588214  0.15541080    -0.80100
O1059       O  0.10648705  0.84936053  0.98816852    -0.77600
C1060       C  0.15814507  0.94322503  0.93074027     0.83400
O1061       O  0.20584997  0.94497013  0.02650244    -0.78700
O1062       O  0.12520542  0.99194674  0.99969358    -0.80200
O1063       O  0.05585931  0.87744037  0.01403267    -0.80000
O1064       O  0.09974677  0.84954065  0.03376903    -0.78600
Zn1065     Zn  0.14037345  0.89859177  0.98136050     1.55700
O1066       O  0.05912300  0.91028416  0.97862905    -0.80000
Cd1067     Cd  0.10008504  0.89388138  0.02977028     1.59700
Cd1068     Cd  0.16775509  0.95873585  0.02685236     1.59600
O1069       O  0.09767026  0.91765364  0.06321024    -0.80000
O1070       O  0.13134821  0.92591253  0.00343871    -1.90500
Cd1071     Cd  0.11302279  0.94670729  0.97890580     1.59900
O1072       O  0.14846087  0.96296419  0.06443278    -0.80000
O1073       O  0.14398112  0.95894471  0.94104771    -0.78600
C1074       C  0.20532718  0.92154224  0.01157454     0.83900
C1075       C  0.09755543  0.83397644  0.01144864     0.83600
O1076       O  0.15420080  0.91667224  0.94249518    -0.77600
C1077       C  0.04238610  0.88489872  0.99489531     0.84400
O1078       O  0.18159762  0.90391890  0.99519385    -0.77700
C1079       C  0.11839570  0.94602386  0.07313981     0.84500
C1080       C  0.15449999  0.51304936  0.00876459     0.84800
O1081       O  0.17693349  0.50478902  0.01306115    -0.80100
O1082       O  0.00947887  0.94639868  0.18027170    -0.77600
C1083       C  0.10330769  0.99804323  0.23769134     0.83400
O1084       O  0.10507293  0.54581710  0.14196816    -0.78700
O1085       O  0.15207225  0.96515786  0.16869955    -0.80200
O1086       O  0.03755005  0.89582754  0.15434951    -0.80000
O1087       O  0.50964956  0.93974290  0.13466160    -0.78600
Zn1088     Zn  0.05870183  0.98029762  0.18706626     1.55700
O1089       O  0.07041800  0.89907779  0.18973201    -0.80000
Cd1090     Cd  0.05398017  0.94006671  0.13863377     1.59700
Cd1091     Cd  0.11885378  0.00772462  0.14156022     1.59600
O1092       O  0.07769430  0.93765818  0.10516293    -0.80000
O1093       O  0.08603669  0.97130854  0.16496698    -1.90500
Cd1094     Cd  0.10683239  0.95297285  0.18948703     1.59900
O1095       O  0.12304374  0.98842237  0.10396303    -0.80000
O1096       O  0.11904837  0.98390590  0.22736993    -0.78600
C1097       C  0.08164079  0.54527715  0.15690673     0.83900
C1098       C  0.49408940  0.93750588  0.15699348     0.83600
O1099       O  0.07675135  0.99408861  0.22593725    -0.77600
C1100       C  0.04502487  0.88234703  0.17347144     0.84400
O1101       O  0.06401291  0.52152747  0.17326808    -0.77700
C1102       C  0.10607214  0.95836804  0.09523806     0.84500
C1103       C  0.17317948  0.99445289  0.15963692     0.84800
O1104       O  0.16491896  0.01688576  0.15533460    -0.80100
O1105       O  0.24351234  0.93122238  0.39269391    -0.77600
C1106       C  0.16075619  0.90523812  0.32387892     0.83400
O1107       O  0.27172660  0.90798704  0.30860960    -0.78700
O1108       O  0.24431239  0.98859672  0.27178288    -0.80200
O1109       O  0.23693074  0.51995082  0.35658794    -0.80000
O1110       O  0.28566540  0.98382846  0.39424779    -0.78600
Zn1111     Zn  0.22540752  0.92702501  0.35383478     1.55700
O1112       O  0.20432766  0.49051459  0.32098890    -0.80000
Cd1113     Cd  0.27340064  0.50253595  0.35638056     1.59700
Cd1114     Cd  0.28544473  0.95985570  0.30828385     1.59600
O1115       O  0.31869158  0.53563465  0.33564680    -0.80000
O1116       O  0.25266382  0.96342569  0.33174424    -1.90500
Cd1117     Cd  0.22066740  0.96260365  0.30535982     1.59900
O1118       O  0.33144777  0.49672349  0.32216339    -0.80000
O1119       O  0.17625981  0.91857599  0.30152963    -0.78600
C1120       C  0.24831576  0.88504545  0.32353851     0.83900
C1121       C  0.27001980  0.95389264  0.40449862     0.83600
O1122       O  0.17620301  0.91168677  0.34712451    -0.77600
C1123       C  0.21166862  0.51137523  0.34019673     0.84400
O1124       O  0.23068753  0.89112110  0.33992971    -0.77700
C1125       C  0.33975699  0.52742951  0.32654730     0.84500
C1126       C  0.27271349  0.99633285  0.26188446     0.84800
O1127       O  0.28973185  0.98338614  0.27069926    -0.80100
O1128       O  0.32094777  0.58606905  0.10902658    -0.77600
C1129       C  0.26447701  0.61219929  0.17803672     0.83400
O1130       O  0.37259773  0.60936568  0.19305024    -0.78700
O1131       O  0.26431782  0.52852024  0.22975038    -0.80200
O1132       O  0.22574362  0.99744620  0.14511469    -0.80000
O1133       O  0.31059896  0.53351879  0.10750497    -0.78600
Zn1134     Zn  0.30716189  0.59030511  0.14790430     1.55700
O1135       O  0.22262242  0.02713075  0.18053444    -0.80000
Cd1136     Cd  0.27962609  0.51477868  0.14536953     1.59700
Cd1137     Cd  0.33439707  0.55749060  0.19340442     1.59600
O1138       O  0.29173568  0.98164985  0.16610405    -0.80000
O1139       O  0.29805885  0.55392235  0.16995503    -1.90500
Cd1140     Cd  0.26687137  0.55477890  0.19631264     1.59900
O1141       O  0.34343967  0.02052766  0.17964490    -0.80000
O1142       O  0.26670572  0.59887025  0.20035022    -0.78600
C1143       C  0.37213318  0.63228399  0.17813044     0.83900
C1144       C  0.32482443  0.56343405  0.09723197     0.83600
O1145       O  0.27337843  0.60572342  0.15474592    -0.77600
C1146       C  0.20908399  0.00620013  0.16137325     0.84400
O1147       O  0.34842111  0.62617726  0.16175338    -0.77700
C1148       C  0.32098028  0.98982169  0.17526452     0.84500
C1149       C  0.28502853  0.52093330  0.23972746     0.84800
O1150       O  0.31509524  0.53407160  0.23102212    -0.80100
O1151       O  0.07946088  0.82748479  0.39281397    -0.77600
C1152       C  0.10554421  0.77096485  0.32379960     0.83400
O1153       O  0.10272073  0.87915090  0.30882922    -0.78700
O1154       O  0.02195510  0.77093698  0.27205196    -0.80200
O1155       O  0.49081597  0.73225995  0.35670224    -0.80000
O1156       O  0.02690408  0.81712010  0.39434444    -0.78600
Zn1157     Zn  0.08368301  0.81368475  0.35393030     1.55700
O1158       O  0.52043868  0.72913967  0.32123129    -0.80000
Cd1159     Cd  0.00815374  0.78614186  0.35647170     1.59700
Cd1160     Cd  0.05086401  0.84094149  0.30846453     1.59600
O1161       O  0.47500986  0.79823443  0.33573585    -0.80000
O1162       O  0.04729601  0.80458009  0.33188233    -1.90500
Cd1163     Cd  0.04814997  0.77340786  0.30550295     1.59900
O1164       O  0.51387636  0.84994736  0.32221341    -0.80000
O1165       O  0.09222150  0.77319585  0.30148306    -0.78600
C1166       C  0.12564947  0.87867035  0.32372122     0.83900
C1167       C  0.05682358  0.83135575  0.40461480     0.83600
O1168       O  0.09907906  0.77988437  0.34708649    -0.77600
C1169       C  0.49952811  0.71559851  0.34040634     0.84400
O1170       O  0.11955770  0.85494254  0.34007501    -0.77700
C1171       C  0.48317065  0.82747418  0.32657407     0.84500
C1172       C  0.01437656  0.79166196  0.26209259     0.84800
O1173       O  0.02749819  0.82171057  0.27082767    -0.80100
O1174       O  0.42468394  0.75014981  0.10915861    -0.77600
C1175       C  0.39869426  0.66739784  0.17796937     0.83400
O1176       O  0.40149753  0.77843238  0.19321549    -0.78700
O1177       O  0.48203218  0.75096409  0.23003884    -0.80200
O1178       O  0.01344292  0.74359225  0.14526195    -0.80000
O1179       O  0.47729487  0.79229853  0.10758337    -0.78600
Zn1180     Zn  0.42049051  0.73205599  0.14801081     1.55700
O1181       O  0.98398154  0.71099129  0.18085298    -0.80000
Cd1182     Cd  0.49602025  0.78005630  0.14544692     1.59700
Cd1183     Cd  0.45335393  0.79213103  0.19352007     1.59600
O1184       O  0.02912480  0.82536764  0.16615536    -0.80000
O1185       O  0.45690381  0.75932461  0.17008013    -1.90500
Cd1186     Cd  0.45605655  0.72732244  0.19646645     1.59900
O1187       O  0.99020592  0.83812250  0.17961781    -0.80000
O1188       O  0.41203512  0.68290792  0.20031499    -0.78600
C1189       C  0.37854485  0.75501016  0.17830534     0.83900
C1190       C  0.44735259  0.77665230  0.09734660     0.83600
O1191       O  0.40513508  0.68284438  0.15472424    -0.77600
C1192       C  0.00485775  0.71833275  0.16165736     0.84400
O1193       O  0.38460429  0.73736167  0.16192343    -0.77700
C1194       C  0.02091342  0.84643550  0.17523588     0.84500
C1195       C  0.48979399  0.77937425  0.23992744     0.84800
O1196       O  0.47688423  0.79641992  0.23109947    -0.80100
O1197       O  0.18319478  0.76725741  0.39268313    -0.77600
C1198       C  0.23980696  0.84995611  0.32373644     0.83400
O1199       O  0.13157137  0.73901072  0.30861443    -0.78700
O1200       O  0.23979980  0.76637114  0.27193103    -0.80200
O1201       O  0.27826451  0.77362477  0.35650321    -0.80000
O1202       O  0.19341357  0.72498617  0.39412769    -0.78600
Zn1203     Zn  0.19701630  0.78532575  0.35381100     1.55700
O1204       O  0.28151548  0.80652136  0.32114551    -0.80000
Cd1205     Cd  0.22435795  0.73721026  0.35624718     1.59700
Cd1206     Cd  0.16966321  0.72522166  0.30824986     1.59600
O1207       O  0.21216605  0.69197094  0.33545489    -0.80000
O1208       O  0.20603845  0.75801041  0.33171099    -1.90500
Cd1209     Cd  0.23730127  0.79007415  0.30539049     1.59900
O1210       O  0.16046442  0.67914541  0.32201580    -0.80000
O1211       O  0.23761375  0.83440163  0.30141043    -0.78600
C1212       C  0.13207976  0.76240809  0.32357952     0.83900
C1213       C  0.17925727  0.74071108  0.40444394     0.83600
O1214       O  0.23088575  0.83456388  0.34701322    -0.77600
C1215       C  0.29499546  0.79903437  0.34025774     0.84400
O1216       O  0.15579541  0.77999560  0.33998178    -0.77700
C1217       C  0.18288584  0.67087724  0.32635099     0.84500
C1218       C  0.21910034  0.73800349  0.26198414     0.84800
O1219       O  0.18902778  0.72104174  0.27067563    -0.80100
O1220       O  0.26074408  0.68985370  0.10920815    -0.77600
C1221       C  0.34345998  0.74650998  0.17811727     0.83400
O1222       O  0.23250765  0.63821339  0.19320366    -0.78700
O1223       O  0.25983202  0.74640667  0.22995999    -0.80200
O1224       O  0.26713282  0.78490680  0.14534477    -0.80000
O1225       O  0.21845049  0.70004193  0.10778505    -0.78600
Zn1226     Zn  0.27883941  0.70369342  0.14806726     1.55700
O1227       O  0.30000119  0.78819673  0.18074048    -0.80000
Cd1228     Cd  0.23070997  0.73101406  0.14564020     1.59700
Cd1229     Cd  0.21871760  0.67630119  0.19358995     1.59600
O1230       O  0.18548398  0.71884540  0.16644326    -0.80000
O1231       O  0.25152270  0.71270587  0.17016940    -1.90500
Cd1232     Cd  0.28357084  0.74397729  0.19649306     1.59900
O1233       O  0.17264340  0.66712304  0.17981921    -0.80000
O1234       O  0.32790992  0.74430435  0.20045020    -0.78600
C1235       C  0.25593455  0.63874423  0.17826388     0.83900
C1236       C  0.23417620  0.68588900  0.09746691     0.83600
O1237       O  0.32806415  0.73759806  0.15484260    -0.77600
C1238       C  0.29252947  0.80165438  0.16159854     0.84400
O1239       O  0.27355016  0.66248067  0.16188773    -0.77700
C1240       C  0.16438005  0.68955385  0.17551580     0.84500
C1241       C  0.23145942  0.72568043  0.23988986     0.84800
O1242       O  0.21451826  0.69561754  0.23117732    -0.80100
O1243       O  0.15424571  0.75277817  0.44244917    -0.77600
C1244       C  0.09770639  0.77885666  0.51143766     0.83400
O1245       O  0.20592182  0.77605717  0.52642056    -0.78700
O1246       O  0.09774587  0.69535131  0.56329089    -0.80200
O1247       O  0.05902938  0.66417462  0.47857654    -0.80000
O1248       O  0.14384936  0.70021544  0.44091848    -0.78600
Zn1249     Zn  0.14044216  0.75700300  0.48133569     1.55700
O1250       O  0.05589576  0.69373470  0.51409281    -0.80000
Cd1251     Cd  0.11290042  0.68149682  0.47880329     1.59700
Cd1252     Cd  0.16771742  0.72418802  0.52679263     1.59600
O1253       O  0.12499705  0.64834803  0.49951305    -0.80000
O1254       O  0.13134117  0.72062868  0.50340189    -1.90500
Cd1255     Cd  0.10017898  0.72148961  0.52980137     1.59900
O1256       O  0.17672965  0.68721773  0.51299218    -0.80000
O1257       O  0.09994125  0.76555405  0.53376469    -0.78600
C1258       C  0.20543198  0.79898274  0.51152999     0.83900
C1259       C  0.15809202  0.73012964  0.43064267     0.83600
O1260       O  0.10662781  0.77237937  0.48815751    -0.77600
C1261       C  0.04236222  0.67285506  0.49489454     0.84400
O1262       O  0.18169422  0.79288670  0.49518513    -0.77700
C1263       C  0.15425333  0.65651162  0.50863683     0.84500
C1264       C  0.11845003  0.68771702  0.57320743     0.84800
O1265       O  0.14847718  0.70077811  0.56442267    -0.80100
O1266       O  0.07694321  0.59796012  0.72613241    -0.77600
C1267       C  0.49422929  0.57188264  0.65727392     0.83400
O1268       O  0.10521006  0.57474312  0.64203046    -0.78700
O1269       O  0.07778345  0.65540562  0.60530578    -0.80200
O1270       O  0.07037274  0.68670393  0.69002046    -0.80000
O1271       O  0.11909674  0.65056944  0.72770383    -0.78600
Zn1272     Zn  0.05886990  0.59374819  0.68727687     1.55700
O1273       O  0.03769270  0.65714279  0.65450016    -0.80000
Cd1274     Cd  0.10685273  0.66928833  0.68983538     1.59700
Cd1275     Cd  0.11890316  0.62660586  0.64172106     1.59600
O1276       O  0.15215540  0.70237771  0.66910527    -0.80000
O1277       O  0.08613054  0.63016534  0.66520861    -1.90500
Cd1278     Cd  0.05411946  0.62932009  0.63884129     1.59900
O1279       O  0.16490282  0.66346818  0.65559123    -0.80000
O1280       O  0.50975902  0.58525342  0.63494155    -0.78600
C1281       C  0.08182193  0.55180319  0.65697634     0.83900
C1282       C  0.10344412  0.62062858  0.73794408     0.83600
O1283       O  0.00964899  0.57832968  0.68053274    -0.77600
C1284       C  0.04506250  0.67805820  0.67366719     0.84400
O1285       O  0.06420812  0.55788019  0.67338152    -0.77700
C1286       C  0.17321365  0.69417121  0.65998768     0.84500
C1287       C  0.10616304  0.66312204  0.59536978     0.84800
O1288       O  0.12316678  0.65013905  0.60413925    -0.80100
O1289       O  0.09398441  0.85648377  0.44255111    -0.77600
C1290       C  0.17673621  0.91312214  0.51147355     0.83400
O1291       O  0.06573680  0.80487675  0.52658227    -0.78700
O1292       O  0.09313708  0.91306330  0.56331641    -0.80200
O1293       O  0.10040926  0.95158649  0.47871385    -0.80000
O1294       O  0.05172460  0.86672244  0.44111259    -0.78600
Zn1295     Zn  0.11208956  0.87032899  0.48141112     1.55700
O1296       O  0.13327839  0.95484909  0.51410025    -0.80000
Cd1297     Cd  0.06398848  0.89769157  0.47897951     1.59700
Cd1298     Cd  0.05197545  0.84297925  0.52694473     1.59600
O1299       O  0.01876407  0.88553347  0.49977620    -0.80000
O1300       O  0.08478950  0.87936910  0.50351235    -1.90500
Cd1301     Cd  0.11685074  0.91062375  0.52983865     1.59900
O1302       O  0.00591505  0.83381375  0.51316886    -0.80000
O1303       O  0.16118758  0.91094311  0.53380045    -0.78600
C1304       C  0.08915130  0.80539049  0.51163871     0.83900
C1305       C  0.06743118  0.85254528  0.43080001     0.83600
O1306       O  0.16133696  0.90419128  0.48819934    -0.77600
C1307       C  0.12580348  0.96832238  0.49497307     0.84400
O1308       O  0.10675848  0.82911035  0.49524705    -0.77700
C1309       C  0.49765767  0.85624562  0.50885254     0.84500
C1310       C  0.06476427  0.89235320  0.57325458     0.84800
O1311       O  0.04779396  0.86229754  0.56453482    -0.80100
O1312       O  0.01656542  0.93396009  0.72606604    -0.77600
C1313       C  0.07330005  0.51670865  0.65716329     0.83400
O1314       O  0.46498246  0.90565818  0.64205272    -0.78700
O1315       O  0.07314711  0.93307800  0.60527597    -0.80200
O1316       O  0.11170489  0.94039657  0.68994003    -0.80000
O1317       O  0.02682911  0.89172067  0.72753596    -0.78600
Zn1318     Zn  0.03043934  0.95205821  0.68720403     1.55700
O1319       O  0.11497271  0.97317089  0.65447743    -0.80000
Cd1320     Cd  0.05780827  0.90397332  0.68967672     1.59700
Cd1321     Cd  0.00309808  0.89192104  0.64170351     1.59600
O1322       O  0.04565347  0.85873487  0.66890470    -0.80000
O1323       O  0.03949403  0.92475831  0.66511594    -1.90500
Cd1324     Cd  0.07074702  0.95679563  0.63876780     1.59900
O1325       O  0.99393199  0.84587942  0.65550816    -0.80000
O1326       O  0.07113853  0.50117203  0.63483345    -0.78600
C1327       C  0.46549620  0.92908694  0.65697334     0.83900
C1328       C  0.01263535  0.90741863  0.73783150     0.83600
O1329       O  0.06432565  0.50129569  0.68042897    -0.77600
C1330       C  0.12844430  0.96573966  0.67363401     0.84400
O1331       O  0.48922429  0.94672456  0.67335009    -0.77700
C1332       C  0.01636654  0.83762643  0.65982477     0.84500
C1333       C  0.05244386  0.90468674  0.59536825     0.84800
O1334       O  0.02240186  0.88770103  0.60412016    -0.80100
O1335       O  0.25798129  0.91678936  0.44247884    -0.77600
C1336       C  0.23200677  0.83408787  0.51134912     0.83400
O1337       O  0.23476268  0.94500660  0.52663194    -0.78700
O1338       O  0.31551924  0.91762354  0.56330031    -0.80200
O1339       O  0.34676488  0.91029757  0.47855416    -0.80000
O1340       O  0.31056829  0.95898668  0.44092141    -0.78600
Zn1341     Zn  0.25380128  0.89872381  0.48134965     1.55700
O1342       O  0.31723735  0.87759895  0.51407601    -0.80000
Cd1343     Cd  0.32932225  0.94675661  0.47878227     1.59700
Cd1344     Cd  0.28663705  0.95872929  0.52695151     1.59600
O1345       O  0.36240619  0.99205869  0.49952534    -0.80000
O1346       O  0.29021526  0.92599893  0.50342424    -1.90500
Cd1347     Cd  0.28941307  0.89398626  0.52977275     1.59900
O1348       O  0.32349821  0.50476794  0.51313038    -0.80000
O1349       O  0.24537496  0.84960979  0.53368440    -0.78600
C1350       C  0.21182894  0.92163163  0.51167107     0.83900
C1351       C  0.28063279  0.94330919  0.43067181     0.83600
O1352       O  0.23843844  0.84951581  0.48809529    -0.77600
C1353       C  0.33813834  0.88498345  0.49489717     0.84400
O1354       O  0.21791280  0.90403185  0.49525437    -0.77700
C1355       C  0.35420084  0.51309812  0.50869393     0.84500
C1356       C  0.32320218  0.94597961  0.57325972     0.84800
O1357       O  0.31017399  0.96295721  0.56452435    -0.80100
O1358       O  0.41281718  0.99409811  0.72615053    -0.77600
C1359       C  0.43894333  0.93761198  0.65717529     0.83400
O1360       O  0.43621240  0.54578833  0.64215991    -0.78700
O1361       O  0.35538377  0.93755171  0.60537568    -0.80200
O1362       O  0.32419922  0.89897302  0.69002034    -0.80000
O1363       O  0.36028614  0.98381759  0.72762126    -0.78600
Zn1364     Zn  0.41707596  0.98032135  0.68727367     1.55700
O1365       O  0.35387939  0.89582471  0.65460719    -0.80000
Cd1366     Cd  0.34155314  0.95284902  0.68975314     1.59700
Cd1367     Cd  0.38432935  0.00761265  0.64176142     1.59600
O1368       O  0.30844749  0.96497031  0.66898732    -0.80000
O1369       O  0.38071974  0.97125508  0.66519676    -1.90500
Cd1370     Cd  0.38157960  0.94006646  0.63884044     1.59900
O1371       O  0.34735354  0.01667363  0.65548154    -0.80000
O1372       O  0.42565616  0.93986801  0.63484711    -0.78600
C1373       C  0.45912000  0.54530631  0.65708387     0.83900
C1374       C  0.39018828  0.99800829  0.73792026     0.83600
O1375       O  0.43243293  0.94649197  0.68045992    -0.77600
C1376       C  0.33294326  0.88230241  0.67376748     0.84400
O1377       O  0.45300011  0.52157871  0.67344849    -0.77700
C1378       C  0.31663639  0.99422146  0.65983639     0.84500
C1379       C  0.34780730  0.95827575  0.59541106     0.84800
O1380       O  0.36094304  0.98833244  0.60413378    -0.80100
O1381       O  0.41022762  0.76458800  0.05938689    -0.77600
C1382       C  0.32748656  0.73855156  0.99055610     0.83400
O1383       O  0.43840795  0.74133579  0.97524028    -0.78700
O1384       O  0.41097992  0.82207507  0.93861961    -0.80200
O1385       O  0.40369293  0.85334897  0.02331052    -0.80000
O1386       O  0.45241497  0.81718326  0.06092665    -0.78600
Zn1387     Zn  0.39213309  0.76036985  0.02053242     1.55700
O1388       O  0.37093160  0.82374554  0.98784362    -0.80000
Cd1389     Cd  0.44015025  0.83590840  0.02307289     1.59700
Cd1390     Cd  0.45210978  0.79319770  0.97492885     1.59600
O1391       O  0.48542612  0.86898977  0.00230275    -0.80000
O1392       O  0.41938634  0.79677819  0.99845962    -1.90500
Cd1393     Cd  0.38734993  0.79595204  0.97213365     1.59900
O1394       O  0.49815220  0.83008758  0.98872073    -0.80000
O1395       O  0.34300078  0.75190152  0.96821471    -0.78600
C1396       C  0.41503806  0.71840052  0.99020195     0.83900
C1397       C  0.43675022  0.78724968  0.07118063     0.83600
O1398       O  0.34292207  0.74500254  0.01380715    -0.77600
C1399       C  0.37834521  0.84468224  0.00699765     0.84400
O1400       O  0.39744088  0.72448038  0.00662558    -0.77700
C1401       C  0.00647200  0.86078948  0.99314246     0.84500
C1402       C  0.43932906  0.82974611  0.92864893     0.84800
O1403       O  0.45629762  0.81669932  0.93735975    -0.80100
O1404       O  0.48754860  0.91944328  0.77580277    -0.77600
C1405       C  0.43096969  0.94548894  0.84475826     0.83400
O1406       O  0.03916106  0.94274305  0.85981923    -0.78700
O1407       O  0.43091729  0.86195645  0.89655917    -0.80200
O1408       O  0.39234389  0.83077908  0.81190763    -0.80000
O1409       O  0.47721471  0.86689867  0.77429138    -0.78600
Zn1410     Zn  0.47372403  0.92365875  0.81467891     1.55700
O1411       O  0.38919983  0.86043452  0.84734123    -0.80000
Cd1412     Cd  0.44622822  0.84814320  0.81215933     1.59700
Cd1413     Cd  0.50097864  0.89087267  0.86018000     1.59600
O1414       O  0.45833165  0.81501714  0.83291016    -0.80000
O1415       O  0.46463410  0.88728735  0.83673890    -1.90500
Cd1416     Cd  0.43344291  0.88814725  0.86309658     1.59900
O1417       O  0.51002864  0.85389262  0.84646057    -0.80000
O1418       O  0.43322222  0.93220628  0.86708892    -0.78600
C1419       C  0.03868222  0.96566364  0.84491471     0.83900
C1420       C  0.49143779  0.89681288  0.76401284     0.83600
O1421       O  0.43987662  0.93899526  0.82147889    -0.77600
C1422       C  0.37567251  0.83950387  0.82817899     0.84400
O1423       O  0.01496205  0.95956201  0.82854614    -0.77700
C1424       C  0.48756981  0.82318468  0.84208307     0.84500
C1425       C  0.45163003  0.85436029  0.90651313     0.84800
O1426       O  0.48168645  0.86748301  0.89779206    -0.80100
O1427       O  0.34994766  0.60059191  0.05930537    -0.77600
C1428       C  0.40653261  0.68331157  0.99039095     0.83400
O1429       O  0.29824313  0.57230015  0.97535409    -0.78700
O1430       O  0.40635682  0.59966728  0.93852942    -0.80200
O1431       O  0.44499931  0.60700507  0.02311557    -0.80000
O1432       O  0.36016959  0.55832116  0.06073045    -0.78600
Zn1433     Zn  0.36375890  0.61868416  0.02045153     1.55700
O1434       O  0.44824296  0.63984405  0.98771220    -0.80000
Cd1435     Cd  0.39111366  0.57057693  0.02286032     1.59700
Cd1436     Cd  0.33633633  0.55853170  0.97497069     1.59600
O1437       O  0.37894213  0.52534974  0.00206869    -0.80000
O1438       O  0.37276817  0.59137121  0.99834937    -1.90500
Cd1439     Cd  0.40399293  0.62341675  0.97200568     1.59900
O1440       O  0.32718474  0.51249438  0.98878383    -0.80000
O1441       O  0.40431604  0.66775706  0.96805892    -0.78600
C1442       C  0.29878613  0.59573890  0.99028099     0.83900
C1443       C  0.34600615  0.57403546  0.07104935     0.83600
O1444       O  0.39763501  0.66791830  0.01366771    -0.77600
C1445       C  0.46172581  0.63238784  0.00684595     0.84400
O1446       O  0.32253263  0.61336782  0.00664484    -0.77700
C1447       C  0.34962560  0.50423626  0.99305082     0.84500
C1448       C  0.38564385  0.57127681  0.92862510     0.84800
O1449       O  0.35559979  0.55430114  0.93737408    -0.80100
O1450       O  0.42731855  0.52311606  0.77587332    -0.77600
C1451       C  0.01002711  0.57978441  0.84481022     0.83400
O1452       O  0.39898163  0.97149530  0.85986753    -0.78700
O1453       O  0.42636507  0.57963274  0.89661990    -0.80200
O1454       O  0.43373053  0.61823689  0.81201682    -0.80000
O1455       O  0.38508056  0.53338567  0.77439254    -0.78600
Zn1456     Zn  0.44539872  0.53696725  0.81473371     1.55700
O1457       O  0.46653150  0.62148466  0.84745175    -0.80000
Cd1458     Cd  0.39730890  0.56433793  0.81225756     1.59700
Cd1459     Cd  0.38522619  0.50959432  0.86020120     1.59600
O1460       O  0.35205229  0.55215254  0.83301126    -0.80000
O1461       O  0.41808032  0.54600277  0.83680693    -1.90500
Cd1462     Cd  0.45011326  0.57724279  0.86315518     1.59900
O1463       O  0.33919574  0.50041613  0.84635790    -0.80000
O1464       O  0.99446549  0.57759657  0.86713133    -0.78600
C1465       C  0.42242195  0.97202292  0.84495283     0.83900
C1466       C  0.40078274  0.51919467  0.76410201     0.83600
O1467       O  0.49463756  0.57084092  0.82153301    -0.77600
C1468       C  0.45908954  0.63496824  0.82831101     0.84400
O1469       O  0.44005798  0.99575379  0.82858031    -0.77700
C1470       C  0.33093955  0.52285038  0.84205711     0.84500
C1471       C  0.39796573  0.55893622  0.90652153     0.84800
O1472       O  0.38097737  0.52889426  0.89777603    -0.80100
O1473       O  0.24620845  0.66083566  0.05948070    -0.77600
C1474       C  0.27225353  0.60429278  0.99049667     0.83400
O1475       O  0.26945358  0.71247482  0.97550256    -0.78700
O1476       O  0.18871454  0.60429595  0.93870799    -0.80200
O1477       O  0.15754077  0.56560884  0.02335771    -0.80000
O1478       O  0.19364656  0.65045292  0.06102547    -0.78600
Zn1479     Zn  0.25040862  0.64701622  0.02060450     1.55700
O1480       O  0.18716764  0.56250221  0.98788295    -0.80000
Cd1481     Cd  0.17488960  0.61949218  0.02315146     1.59700
Cd1482     Cd  0.21758333  0.67429230  0.97516071     1.59600
O1483       O  0.14175692  0.63162359  0.00244608    -0.80000
O1484       O  0.21402486  0.63792797  0.99856055    -1.90500
Cd1485     Cd  0.21489432  0.60677323  0.97216966     1.59900
O1486       O  0.18064188  0.68334478  0.98895999    -0.80000
O1487       O  0.25895926  0.60655238  0.96817407    -0.78600
C1488       C  0.29238246  0.71198325  0.99038704     0.83900
C1489       C  0.22356933  0.66469741  0.07128707     0.83600
O1490       O  0.26576998  0.61319217  0.01378354    -0.77600
C1491       C  0.16625129  0.54895368  0.00705286     0.84400
O1492       O  0.28628994  0.68825342  0.00673845    -0.77700
C1493       C  0.14993156  0.66087869  0.99331316     0.84500
C1494       C  0.18106472  0.62498721  0.92879178     0.84800
O1495       O  0.19413736  0.65502211  0.93755352    -0.80100
O1496       O  0.09136526  0.58349911  0.77589746    -0.77600
C1497       C  0.06525899  0.00076673  0.84474282     0.83400
O1498       O  0.06804989  0.61169843  0.85997458    -0.78700
O1499       O  0.14875877  0.58430886  0.89670850    -0.80200
O1500       O  0.18005217  0.57692700  0.81200466    -0.80000
O1501       O  0.14395960  0.62568947  0.77437777    -0.78600
Zn1502     Zn  0.08712119  0.56540085  0.81474923     1.55700
O1503       O  0.15047712  0.54419798  0.84749766    -0.80000
Cd1504     Cd  0.16265023  0.61340759  0.81223717     1.59700
Cd1505     Cd  0.11992184  0.62541386  0.86031742     1.59600
O1506       O  0.19573247  0.65868119  0.83299868    -0.80000
O1507       O  0.12350969  0.59265806  0.83683829    -1.90500
Cd1508     Cd  0.12266929  0.56063557  0.86318509     1.59900
O1509       O  0.15680711  0.67142662  0.84646930    -0.80000
O1510       O  0.07859715  0.01629014  0.86708516    -0.78600
C1511       C  0.04512356  0.58830882  0.84501994     0.83900
C1512       C  0.11403279  0.61002656  0.76411302     0.83600
O1513       O  0.07173636  0.51619066  0.82148544    -0.77600
C1514       C  0.17139252  0.55158928  0.82832539     0.84400
O1515       O  0.05121871  0.57070204  0.82862138    -0.77700
C1516       C  0.18751708  0.67974143  0.84209083     0.84500
C1517       C  0.15644820  0.61267660  0.90665077     0.84800
O1518       O  0.14342762  0.62965517  0.89790254    -0.80100
O1519       O  0.27325443  0.68275086  0.65489877    -0.77600
C1520       C  0.32486763  0.77661717  0.59749880     0.83400
O1521       O  0.37257950  0.77836761  0.69329115    -0.78700
O1522       O  0.29189843  0.82529201  0.66647068    -0.80200
O1523       O  0.22260787  0.71082506  0.68086890    -0.80000
O1524       O  0.26647955  0.68285929  0.70049963    -0.78600
Zn1525     Zn  0.30712241  0.73199264  0.64812863     1.55700
O1526       O  0.22585246  0.74364808  0.64545272    -0.80000
Cd1527     Cd  0.26684210  0.72721876  0.69657841     1.59700
Cd1528     Cd  0.33446751  0.79211393  0.69365445     1.59600
O1529       O  0.26441118  0.75090698  0.73007214    -0.80000
O1530       O  0.29807733  0.75928086  0.67023654    -1.90500
Cd1531     Cd  0.27974276  0.78006267  0.64569590     1.59900
O1532       O  0.31513275  0.79631832  0.73122911    -0.80000
O1533       O  0.31068038  0.79231367  0.60781089    -0.78600
C1534       C  0.37206677  0.75495540  0.67834654     0.83900
C1535       C  0.26429909  0.66733025  0.67816118     0.83600
O1536       O  0.32096193  0.75008625  0.60926480    -0.77600
C1537       C  0.20912457  0.71828077  0.66173673     0.84400
O1538       O  0.34834128  0.73733676  0.66196313    -0.77700
C1539       C  0.28508842  0.77931017  0.73997340     0.84500
C1540       C  0.32119507  0.84640580  0.67552499     0.84800
O1541       O  0.34363093  0.83815322  0.67983984    -0.80100
O1542       O  0.17609265  0.77976430  0.84709069    -0.77600
C1543       C  0.27001685  0.83142553  0.90445874     0.83400
O1544       O  0.27168975  0.87908310  0.80869630    -0.78700
O1545       O  0.31866489  0.79844045  0.83548858    -0.80200
O1546       O  0.20416105  0.72912016  0.82118608    -0.80000
O1547       O  0.17623994  0.77300970  0.80148894    -0.75000
Zn1548     Zn  0.22533750  0.81363561  0.85386479     1.55700
O1549       O  0.23702247  0.73238791  0.85657994    -0.80000
Cd1550     Cd  0.22058844  0.77334269  0.80544136     1.59700
Cd1551     Cd  0.28545741  0.84099492  0.80835800     1.59600
O1552       O  0.24434415  0.77092039  0.77198031    -0.80000
O1553       O  0.25263470  0.80459528  0.83177081    -1.90500
Cd1554     Cd  0.27344531  0.78627725  0.85629408     1.59900
O1555       O  0.28968435  0.82169126  0.77078422    -0.80000
O1556       O  0.28572118  0.81724630  0.89414989    -0.78600
C1557       C  0.24826681  0.87856384  0.82362931     0.83900
C1558       C  0.16069206  0.77083105  0.82381776     0.83600
O1559       O  0.24346186  0.82748750  0.89271142    -0.77600
C1560       C  0.21162820  0.71565101  0.84032209     0.84400
O1561       O  0.23065672  0.85484632  0.84002187    -0.77700
C1562       C  0.27273097  0.79163540  0.76206439     0.84500
C1563       C  0.33976989  0.82774468  0.82644282     0.84800
O1564       O  0.33150608  0.85017736  0.82216019    -0.80100
O1565       O  0.23081190  0.91159936  0.84709191    -0.77600
C1566       C  0.17932483  0.95382043  0.90455588     0.83400
O1567       O  0.13152269  0.90789479  0.80878340    -0.78700
O1568       O  0.21238312  0.53560598  0.83570420    -0.80200
O1569       O  0.28149381  0.49016765  0.82116569    -0.80000
O1570       O  0.23744607  0.91836004  0.80148011    -0.78600
Zn1571     Zn  0.19698747  0.92696155  0.85388382     1.55700
O1572       O  0.27838156  0.51982272  0.85661602    -0.80000
Cd1573     Cd  0.23722697  0.96242628  0.80544163     1.59700
Cd1574     Cd  0.16971444  0.95977379  0.80841632     1.59600
O1575       O  0.23973079  0.98857014  0.77194970    -0.80000
O1576       O  0.20607243  0.96332968  0.83182027    -1.90500
Cd1577     Cd  0.22450595  0.50247148  0.85640360     1.59900
O1578       O  0.18903204  0.98322218  0.77081112    -0.80000
O1579       O  0.19355815  0.98373553  0.89428276    -0.78600
C1580       C  0.13200792  0.88497402  0.82368545     0.83900
C1581       C  0.23970901  0.90509136  0.82381512     0.83600
O1582       O  0.18318746  0.93118019  0.89275692    -0.77600
C1583       C  0.29503819  0.51109953  0.84032660     0.84400
O1584       O  0.15574193  0.89107404  0.84003575    -0.77700
C1585       C  0.21906115  0.99625184  0.76203707     0.84500
C1586       C  0.18312131  0.52743084  0.82658819     0.84800
O1587       O  0.16066025  0.49672226  0.82221811    -0.80100
O1588       O  0.32788939  0.60567382  0.65473829    -0.77600
C1589       C  0.23404567  0.56338844  0.59734200     0.83400
O1590       O  0.23239005  0.60929931  0.69328990    -0.78700
O1591       O  0.18540513  0.98165294  0.66622292    -0.80200
O1592       O  0.29987279  0.02687503  0.68071880    -0.80000
O1593       O  0.32779021  0.59873374  0.70032934    -0.78600
Zn1594     Zn  0.27867019  0.59027064  0.64799552     1.55700
O1595       O  0.26715549  0.99731823  0.64521512    -0.80000
Cd1596     Cd  0.28343492  0.55466565  0.69641967     1.59700
Cd1597     Cd  0.21868796  0.55743924  0.69359241     1.59600
O1598       O  0.25974277  0.52852281  0.72993098    -0.80000
O1599       O  0.25142520  0.55385888  0.67007301    -1.90500
Cd1600     Cd  0.23067676  0.51473718  0.64544889     1.59900
O1601       O  0.21444721  0.53393593  0.73117232    -0.80000
O1602       O  0.21839520  0.53345265  0.60759290    -0.78600
C1603       C  0.25576621  0.63223386  0.67833350     0.83900
C1604       C  0.34331323  0.61211335  0.67799557     0.83600
O1605       O  0.26056297  0.58605588  0.60913965    -0.77600
C1606       C  0.29248586  0.00596543  0.66154512     0.84400
O1607       O  0.27335681  0.62614935  0.66190717    -0.77700
C1608       C  0.23139121  0.52086830  0.73989447     0.84500
C1609       C  0.16435545  0.98985206  0.67537647     0.84800
O1610       O  0.17266553  0.52055446  0.67977932    -0.80100
O1611       O  0.09898709  0.83446181  0.84714459    -0.77600
C1612       C  0.05676661  0.74065265  0.90456230     0.83400
O1613       O  0.10266058  0.73892932  0.80868072    -0.78700
O1614       O  0.47499559  0.69193237  0.83571831    -0.80200
O1615       O  0.52020057  0.80640504  0.82118782    -0.80000
O1616       O  0.09205786  0.83433233  0.80155290    -0.78600
Zn1617     Zn  0.08362135  0.78525560  0.85390622     1.55700
O1618       O  0.49066467  0.77370479  0.85670568    -0.80000
Cd1619     Cd  0.04800555  0.78997967  0.80549861     1.59700
Cd1620     Cd  0.05079593  0.72522870  0.80834725     1.59600
O1621       O  0.02190908  0.76629837  0.77198740    -0.80000
O1622       O  0.04720648  0.75797561  0.83184399    -1.90500
Cd1623     Cd  0.00808431  0.73722663  0.85646879     1.59900
O1624       O  0.02731753  0.72100011  0.77075259    -0.80000
O1625       O  0.02683092  0.72497589  0.89431381    -0.78600
C1626       C  0.12559969  0.76232392  0.82362180     0.83900
C1627       C  0.10542711  0.84987151  0.82388134     0.83600
O1628       O  0.07941660  0.76718380  0.89276864    -0.77600
C1629       C  0.49930153  0.79902621  0.84036884     0.84400
O1630       O  0.11952072  0.77994579  0.84001821    -0.77700
C1631       C  0.01426899  0.73795840  0.76201751     0.84500
C1632       C  0.48320046  0.67088390  0.82657211     0.84800
O1633       O  0.51390526  0.67920253  0.82216325    -0.80100
O1634       O  0.40510209  0.73753390  0.65483693    -0.77600
C1635       C  0.44727270  0.68600799  0.59731636     0.83400
O1636       O  0.40134063  0.63819618  0.69307508    -0.78700
O1637       O  0.02907948  0.71903767  0.66619961    -0.80200
O1638       O  0.98369617  0.78818704  0.68071948    -0.80000
O1639       O  0.41189850  0.74414653  0.70044770    -0.78600
Zn1640     Zn  0.42043689  0.70369059  0.64800067     1.55700
O1641       O  0.01332425  0.78506030  0.64525495    -0.80000
Cd1642     Cd  0.45595553  0.74392206  0.69643353     1.59700
Cd1643     Cd  0.45321771  0.67637758  0.69346166     1.59600
O1644       O  0.48209717  0.74638191  0.72990396    -0.80000
O1645       O  0.45681208  0.71275119  0.67005223    -1.90500
Cd1646     Cd  0.99595935  0.73117425  0.64547244     1.59900
O1647       O  0.47660126  0.69562670  0.73109490    -0.80000
O1648       O  0.47718731  0.70021356  0.60759455    -0.78600
C1649       C  0.37841941  0.63869360  0.67818235     0.83900
C1650       C  0.39860962  0.74641761  0.67812765     0.83600
O1651       O  0.42464834  0.68990383  0.60911151    -0.77600
C1652       C  0.00461692  0.80172491  0.66155127     0.84400
O1653       O  0.38452356  0.66243598  0.66183961    -0.77700
C1654       C  0.48969234  0.72566543  0.73985035     0.84500
C1655       C  0.02090166  0.68979095  0.67535605     0.84800
O1656       O  0.99018906  0.66733158  0.67971429    -0.80100
O1657       O  0.84277603  0.11316714  0.51370509    -0.77600
C1658       C  0.93665824  0.16481829  0.57113216     0.83400
O1659       O  0.93840244  0.21247884  0.47533865    -0.78700
O1660       O  0.98534644  0.13182445  0.50221745    -0.80200
O1661       O  0.87085109  0.06248823  0.48780353    -0.80000
O1662       O  0.84293174  0.10638383  0.46810771    -0.78600
Zn1663     Zn  0.89202037  0.14702879  0.52050388     1.55700
O1664       O  0.90367190  0.06575553  0.52322973    -0.80000
Cd1665     Cd  0.88727817  0.10672049  0.47207506     1.59700
Cd1666     Cd  0.95216458  0.17437086  0.47499208     1.59600
O1667       O  0.91100679  0.10428942  0.43859935    -0.80000
O1668       O  0.91932397  0.13798029  0.49841301    -1.90500
Cd1669     Cd  0.94009734  0.11965476  0.52297230     1.59900
O1670       O  0.95638388  0.15503305  0.43741382    -0.80000
O1671       O  0.95235113  0.15062164  0.56083309    -0.78600
C1672       C  0.91498020  0.21196404  0.49027333     0.83900
C1673       C  0.82737982  0.10421609  0.49043081     0.83600
O1674       O  0.91011676  0.16089526  0.55936945    -0.77600
C1675       C  0.87830301  0.04901546  0.50694650     0.84400
O1676       O  0.89736147  0.18824067  0.50665724    -0.77700
C1677       C  0.93939622  0.12498332  0.42867891     0.84500
C1678       C  0.50646215  0.16111517  0.49315165     0.84800
O1679       O  0.99821021  0.18354825  0.48882196    -0.80100
O1680       O  0.93973866  0.01599691  0.32149110    -0.77600
C1681       C  0.99144718  0.10989302  0.26411800     0.83400
O1682       O  0.53912434  0.11158351  0.35983000    -0.78700
O1683       O  0.95847476  0.15858728  0.33307831    -0.80200
O1684       O  0.88914443  0.04409720  0.34745047    -0.80000
O1685       O  0.93305002  0.51616288  0.36709971    -0.78600
Zn1686     Zn  0.97362509  0.06522933  0.31471280     1.55700
O1687       O  0.89240206  0.07692039  0.31202883    -0.80000
Cd1688     Cd  0.93338221  0.06051236  0.36316581     1.59700
Cd1689     Cd  0.00103924  0.12537609  0.36021668     1.59600
O1690       O  0.93099428  0.08425084  0.39665398    -0.80000
O1691       O  0.96461809  0.09255210  0.33681812    -1.90500
Cd1692     Cd  0.94629826  0.11335345  0.31228666     1.59900
O1693       O  0.98175668  0.12960493  0.39781523    -0.80000
O1694       O  0.97728263  0.12561121  0.27442970    -0.78600
C1695       C  0.53858226  0.08814508  0.34490060     0.83900
C1696       C  0.93084094  0.50060705  0.34476908     0.83600
O1697       O  0.98747680  0.08332357  0.27585829    -0.77600
C1698       C  0.87566822  0.05154702  0.32830809     0.84400
O1699       O  0.51483870  0.07052420  0.32853163    -0.77700
C1700       C  0.95171163  0.11263745  0.40656540     0.84500
C1701       C  0.98777720  0.17969371  0.34213058     0.84800
O1702       O  0.01021157  0.17143147  0.34641857    -0.80100
O1703       O  0.99448981  0.43890091  0.32139765    -0.77600
C1704       C  0.90071790  0.39668453  0.26398371     0.83400
O1705       O  0.89896013  0.44258097  0.35991087    -0.78700
O1706       O  0.85195919  0.31493356  0.33285921    -0.80200
O1707       O  0.96638069  0.36009865  0.34745156    -0.80000
O1708       O  0.49441924  0.43199656  0.36698803    -0.78600
Zn1709     Zn  0.94528291  0.42355283  0.31466729     1.55700
O1710       O  0.93371216  0.33057864  0.31191265    -0.80000
Cd1711     Cd  0.95002470  0.38797243  0.36310526     1.59700
Cd1712     Cd  0.88525913  0.39071948  0.36024080     1.59600
O1713       O  0.92640369  0.36193648  0.39665629    -0.80000
O1714       O  0.91801021  0.38714300  0.33674217    -1.90500
Cd1715     Cd  0.89725873  0.34801969  0.31211549     1.59900
O1716       O  0.88102556  0.36721146  0.39782443    -0.80000
O1717       O  0.88504024  0.36675056  0.27423696    -0.78600
C1718       C  0.92234686  0.46552102  0.34496461     0.83900
C1719       C  0.50993185  0.44534203  0.34464534     0.83600
O1720       O  0.92722391  0.41934473  0.27579730    -0.77600
C1721       C  0.95900763  0.33919649  0.32827493     0.84400
O1722       O  0.93996944  0.45944895  0.32856174    -0.77700
C1723       C  0.89803074  0.35423081  0.40659436     0.84500
C1724       C  0.83091181  0.32313944  0.34200552     0.84800
O1725       O  0.83923368  0.35384354  0.34641530    -0.80100
O1726       O  0.89750452  0.24496766  0.51376730    -0.77600
C1727       C  0.84602980  0.28721176  0.57129792     0.83400
O1728       O  0.79822844  0.24126633  0.47547794    -0.78700
O1729       O  0.87910337  0.36899111  0.50237584    -0.80200
O1730       O  0.94822996  0.32358554  0.48793488    -0.80000
O1731       O  0.90420484  0.25182054  0.46816386    -0.78600
Zn1732     Zn  0.86368305  0.26033740  0.52060577     1.55700
O1733       O  0.94508320  0.35321091  0.52339026    -0.80000
Cd1734     Cd  0.90397977  0.29588162  0.47218137     1.59700
Cd1735     Cd  0.83643201  0.29312863  0.47510200     1.59600
O1736       O  0.90648087  0.32208811  0.43872952    -0.80000
O1737       O  0.87278172  0.29671593  0.49854760    -1.90500
Cd1738     Cd  0.89120101  0.33586171  0.52313206     1.59900
O1739       O  0.85568466  0.31649133  0.43746854    -0.80000
O1740       O  0.86023942  0.31712152  0.56101282    -0.78600
C1741       C  0.79869688  0.21834544  0.49038935     0.83900
C1742       C  0.90643194  0.23850280  0.49048395     0.83600
O1743       O  0.84990471  0.26457633  0.55949858    -0.77600
C1744       C  0.96175583  0.34449600  0.50711091     0.84400
O1745       O  0.82241765  0.22444511  0.50675701    -0.77700
C1746       C  0.88574660  0.32964296  0.42875431     0.84500
C1747       C  0.84987116  0.36082785  0.49318970     0.84800
O1748       O  0.82740791  0.33012199  0.48881353    -0.80100
O1749       O  0.57157344  0.07065027  0.32140065    -0.77600
C1750       C  0.61388421  0.01921251  0.26388508     0.83400
O1751       O  0.56796626  0.47144622  0.35972089    -0.78700
O1752       O  0.69566288  0.05233559  0.33275264    -0.80200
O1753       O  0.65022039  0.12143569  0.34725256    -0.80000
O1754       O  0.57844954  0.07737829  0.36700204    -0.78600
Zn1755     Zn  0.58699630  0.03686784  0.31456892     1.55700
O1756       O  0.67984884  0.11830990  0.31178867    -0.80000
Cd1757     Cd  0.62252803  0.07717675  0.36300215     1.59700
Cd1758     Cd  0.61983511  0.00965634  0.36006607     1.59600
O1759       O  0.64874711  0.07969747  0.39646536    -0.80000
O1760       O  0.62338368  0.04599500  0.33662837    -1.90500
Cd1761     Cd  0.66251858  0.06443169  0.31203047     1.59900
O1762       O  0.64326274  0.02894824  0.39768273    -0.80000
O1763       O  0.64380158  0.03346826  0.27415666    -0.78600
C1764       C  0.54504085  0.47190845  0.34480873     0.83900
C1765       C  0.56511619  0.07958675  0.34468306     0.83600
O1766       O  0.59122906  0.02305320  0.27568832    -0.77600
C1767       C  0.67113015  0.13497250  0.32807666     0.84400
O1768       O  0.55113736  0.49561835  0.32843445    -0.77700
C1769       C  0.65636390  0.05899701  0.40641875     0.84500
C1770       C  0.68750408  0.02309494  0.34191126     0.84800
O1771       O  0.65680104  0.00062649  0.34629074    -0.80100
O1772       O  0.76565648  0.16780376  0.51380542    -0.77600
C1773       C  0.72343634  0.07398384  0.57117487     0.83400
O1774       O  0.76935024  0.07229846  0.47528295    -0.78700
O1775       O  0.64168965  0.02528939  0.50231829    -0.80200
O1776       O  0.68685188  0.13970602  0.48771834    -0.80000
O1777       O  0.75877384  0.16772830  0.46820968    -0.78600
Zn1778     Zn  0.75029322  0.11859558  0.52051991     1.55700
O1779       O  0.65736051  0.10705229  0.52327563    -0.80000
Cd1780     Cd  0.71472471  0.12333852  0.47205919     1.59700
Cd1781     Cd  0.71747377  0.05857016  0.47495308     1.59600
O1782       O  0.68868923  0.09969484  0.43849468    -0.80000
O1783       O  0.71389315  0.09133128  0.49843068    -1.90500
Cd1784     Cd  0.67477626  0.07058056  0.52306155     1.59900
O1785       O  0.69393639  0.05429945  0.43737033    -0.80000
O1786       O  0.69350014  0.05832190  0.56092477    -0.78600
C1787       C  0.79228416  0.09569677  0.49022627     0.83900
C1788       C  0.77211855  0.18324044  0.49055511     0.83600
O1789       O  0.74609501  0.10050154  0.55937397    -0.77600
C1790       C  0.66596959  0.13234439  0.50691221     0.84400
O1791       O  0.78619666  0.11331018  0.50662446    -0.77700
C1792       C  0.68096668  0.07130687  0.42857732     0.84500
C1793       C  0.64990743  0.00423570  0.49321289     0.84800
O1794       O  0.68061709  0.01255905  0.48882331    -0.80100
O1795       O  0.66119434  0.27229555  0.98808644    -0.77600
C1796       C  0.56738241  0.23005660  0.93072117     0.83400
O1797       O  0.56563624  0.27594359  0.02658366    -0.78700
O1798       O  0.51870728  0.14830134  0.99953515    -0.80200
O1799       O  0.63312267  0.19349769  0.01419695    -0.80000
O1800       O  0.66111562  0.26542557  0.03368302    -0.78600
Zn1801     Zn  0.61198503  0.25692595  0.98137280     1.55700
O1802       O  0.60048588  0.16399306  0.97863639    -0.80000
Cd1803     Cd  0.61674083  0.22137653  0.02982553     1.59700
Cd1804     Cd  0.55193294  0.22407602  0.02690447     1.59600
O1805       O  0.59310801  0.19537489  0.06339342    -0.80000
O1806       O  0.58472670  0.22051995  0.00345051    -1.90500
Cd1807     Cd  0.56400844  0.18140353  0.97882090     1.59900
O1808       O  0.54766317  0.20054267  0.06448629    -0.80000
O1809       O  0.55174402  0.20011587  0.94096103    -0.78600
C1810       C  0.58904805  0.29888689  0.01165656     0.83900
C1811       C  0.67662978  0.27875986  0.01133762     0.83600
O1812       O  0.59388928  0.25272697  0.94252449    -0.77600
C1813       C  0.62576851  0.17260478  0.99501286     0.84400
O1814       O  0.60668264  0.29281334  0.99527199    -0.77700
C1815       C  0.56470490  0.18761963  0.07329751     0.84500
C1816       C  0.99763463  0.15650625  0.00861579     0.84800
O1817       O  0.50594006  0.18721020  0.01300433    -0.80100
O1818       O  0.56419883  0.07829041  0.18043828    -0.77600
C1819       C  0.51266478  0.12050670  0.23794968     0.83400
O1820       O  0.96493653  0.07462456  0.14216305    -0.78700
O1821       O  0.54582460  0.20233221  0.16911176    -0.80200
O1822       O  0.61493821  0.15691482  0.15459961    -0.80000
O1823       O  0.57086178  0.08514903  0.13483208    -0.78600
Zn1824     Zn  0.53038737  0.09367284  0.18727874     1.55700
O1825       O  0.61180785  0.18651397  0.19008420    -0.80000
Cd1826     Cd  0.57067092  0.12922874  0.13885727     1.59700
Cd1827     Cd  0.50312843  0.12649502  0.14182184     1.59600
O1828       O  0.57314922  0.15544704  0.10541214    -0.80000
O1829       O  0.53949105  0.13006306  0.16523760    -1.90500
Cd1830     Cd  0.55792308  0.16919039  0.18983875     1.59900
O1831       O  0.52237136  0.14989932  0.10419602    -0.80000
O1832       O  0.52691756  0.15043102  0.22769142    -0.78600
C1833       C  0.96542510  0.05169426  0.15704679     0.83900
C1834       C  0.57309982  0.07182199  0.15714360     0.83600
O1835       O  0.51654513  0.09787430  0.22615263    -0.77600
C1836       C  0.62847391  0.17780717  0.17378720     0.84400
O1837       O  0.98914952  0.05779064  0.17340652    -0.77700
C1838       C  0.55242269  0.16302855  0.09545941     0.84500
C1839       C  0.51657807  0.19416760  0.15996006     0.84800
O1840       O  0.49410505  0.16346186  0.15560019    -0.80100
O1841       O  0.73837350  0.40411133  0.98809143    -0.77600
C1842       C  0.78062595  0.35261508  0.93063710     0.83400
O1843       O  0.73465152  0.30484882  0.02641844    -0.78700
O1844       O  0.86238752  0.38567960  0.99955577    -0.80200
O1845       O  0.81691991  0.45479821  0.01393723    -0.80000
O1846       O  0.74515509  0.41074304  0.03370273    -0.78600
Zn1847     Zn  0.75374511  0.37029308  0.98128702     1.55700
O1848       O  0.84663529  0.45167647  0.97854102    -0.80000
Cd1849     Cd  0.78923571  0.41055330  0.02970224     1.59700
Cd1850     Cd  0.78651907  0.34302914  0.02678179     1.59600
O1851       O  0.81546579  0.41308952  0.06314708    -0.80000
O1852       O  0.79011186  0.37937797  0.00334642    -1.90500
Cd1853     Cd  0.82927846  0.39779691  0.97879035     1.59900
O1854       O  0.80991871  0.36231410  0.06439319    -0.80000
O1855       O  0.81053777  0.36682634  0.94092016    -0.78600
C1856       C  0.71173657  0.30532578  0.01150401     0.83900
C1857       C  0.73186812  0.41299919  0.01137420     0.83600
O1858       O  0.75799338  0.35650590  0.94242055    -0.77600
C1859       C  0.83787378  0.46833566  0.99479101     0.84400
O1860       O  0.71784475  0.32904378  0.99513323    -0.77700
C1861       C  0.82306046  0.39237575  0.07310299     0.84500
C1862       C  0.85419938  0.35642803  0.00870484     0.84800
O1863       O  0.82348334  0.33397167  0.01305257    -0.80100
O1864       O  0.93242462  0.00112179  0.18043358    -0.77600
C1865       C  0.89014657  0.40728477  0.23779986     0.83400
O1866       O  0.93606484  0.40561109  0.14185267    -0.78700
O1867       O  0.80843032  0.35862295  0.16892936    -0.80200
O1868       O  0.85362632  0.47305879  0.15437346    -0.80000
O1869       O  0.92552656  0.00108722  0.13484294    -0.78600
Zn1870     Zn  0.91704703  0.45190349  0.18714071     1.55700
O1871       O  0.82409001  0.44036183  0.18989411    -0.80000
Cd1872     Cd  0.88149265  0.45669554  0.13869992     1.59700
Cd1873     Cd  0.88420285  0.39190099  0.14155569     1.59600
O1874       O  0.85543499  0.43307388  0.10515074    -0.80000
O1875       O  0.88064703  0.42466281  0.16505126    -1.90500
Cd1876     Cd  0.84152224  0.40390781  0.18967217     1.59900
O1877       O  0.86065811  0.38766436  0.10399752    -0.80000
O1878       O  0.86021451  0.39164086  0.22754296    -0.78600
C1879       C  0.95900127  0.42899232  0.15680480     0.83900
C1880       C  0.93886828  0.01658142  0.15719430     0.83600
O1881       O  0.91282716  0.43378821  0.22599571    -0.77600
C1882       C  0.83271740  0.46567160  0.17354853     0.84400
O1883       O  0.95292399  0.44659439  0.17322360    -0.77700
C1884       C  0.84768872  0.40468139  0.09523216     0.84500
C1885       C  0.81663704  0.33756422  0.15981781     0.84800
O1886       O  0.84734209  0.34588223  0.15541075    -0.80100
O1887       O  0.60648693  0.34936037  0.98816852    -0.77600
C1888       C  0.65814502  0.44322495  0.93074026     0.83400
O1889       O  0.70584998  0.44497012  0.02650244    -0.78700
O1890       O  0.62520542  0.49194683  0.99969355    -0.80200
O1891       O  0.55585928  0.37744038  0.01403273    -0.80000
O1892       O  0.59974684  0.34954080  0.03376903    -0.78600
Zn1893     Zn  0.64037342  0.39859173  0.98136048     1.55700
O1894       O  0.55912307  0.41028421  0.97862905    -0.80000
Cd1895     Cd  0.60008507  0.39388142  0.02977028     1.59700
Cd1896     Cd  0.66775511  0.45873585  0.02685237     1.59600
O1897       O  0.59767024  0.41765363  0.06321026    -0.80000
O1898       O  0.63134822  0.42591250  0.00343868    -1.90500
Cd1899     Cd  0.61302283  0.44670732  0.97890580     1.59900
O1900       O  0.64846082  0.46296418  0.06443285    -0.80000
O1901       O  0.64398118  0.45894468  0.94104775    -0.78600
C1902       C  0.70532714  0.42154217  0.01157452     0.83900
C1903       C  0.59755543  0.33397640  0.01144864     0.83600
O1904       O  0.65420071  0.41667215  0.94249518    -0.77600
C1905       C  0.54238613  0.38489868  0.99489531     0.84400
O1906       O  0.68159759  0.40391885  0.99519388    -0.77700
C1907       C  0.61839614  0.44602438  0.07313982     0.84500
C1908       C  0.65449994  0.01304934  0.00876458     0.84800
O1909       O  0.67693337  0.00478894  0.01306118    -0.80100
O1910       O  0.50947886  0.44639873  0.18027168    -0.77600
C1911       C  0.60330748  0.49804313  0.23769139     0.83400
O1912       O  0.60507287  0.04581700  0.14196814    -0.78700
O1913       O  0.65207214  0.46515780  0.16869954    -0.80200
O1914       O  0.53755004  0.39582749  0.15434952    -0.80000
O1915       O  0.00964958  0.43974295  0.13466157    -0.78600
Zn1916     Zn  0.55870186  0.48029764  0.18706626     1.55700
O1917       O  0.57041810  0.39907789  0.18973198    -0.80000
Cd1918     Cd  0.55398018  0.44006673  0.13863380     1.59700
Cd1919     Cd  0.61885390  0.50772474  0.14156021     1.59600
O1920       O  0.57769443  0.43765827  0.10516294    -0.80000
O1921       O  0.58603680  0.47130866  0.16496696    -1.90500
Cd1922     Cd  0.60683238  0.45297287  0.18948703     1.59900
O1923       O  0.62304385  0.48842255  0.10396299    -0.80000
O1924       O  0.61904844  0.48390595  0.22736988    -0.78600
C1925       C  0.58164067  0.04527704  0.15690676     0.83900
C1926       C  0.99408946  0.43750592  0.15699352     0.83600
O1927       O  0.57675131  0.49408851  0.22593729    -0.77600
C1928       C  0.54502491  0.38234701  0.17347138     0.84400
O1929       O  0.56401282  0.02152740  0.17326807    -0.77700
C1930       C  0.60607171  0.45836766  0.09523805     0.84500
C1931       C  0.67317946  0.49445285  0.15963691     0.84800
O1932       O  0.66491909  0.51688582  0.15533462    -0.80100
O1933       O  0.74351232  0.43122240  0.39269389    -0.77600
C1934       C  0.66075616  0.40523806  0.32387904     0.83400
O1935       O  0.77172662  0.40798710  0.30860960    -0.78700
O1936       O  0.74431232  0.48859664  0.27178298    -0.80200
O1937       O  0.73693072  0.01995081  0.35658798    -0.80000
O1938       O  0.78566546  0.48382843  0.39424783    -0.78600
Zn1939     Zn  0.72540752  0.42702502  0.35383477     1.55700
O1940       O  0.70432769  0.99051469  0.32098889    -0.80000
Cd1941     Cd  0.77340066  0.00253598  0.35638055     1.59700
Cd1942     Cd  0.78544474  0.45985570  0.30828382     1.59600
O1943       O  0.81869164  0.03563466  0.33564674    -0.80000
O1944       O  0.75266382  0.46342562  0.33174422    -1.90500
Cd1945     Cd  0.72066734  0.46260355  0.30535984     1.59900
O1946       O  0.83144780  0.99672342  0.32216341    -0.80000
O1947       O  0.67625980  0.41857588  0.30152956    -0.78600
C1948       C  0.74831582  0.38504554  0.32353846     0.83900
C1949       C  0.77001990  0.45389272  0.40449863     0.83600
O1950       O  0.67620294  0.41168677  0.34712446    -0.77600
C1951       C  0.71166859  0.01137526  0.34019672     0.84400
O1952       O  0.73068753  0.39112113  0.33992970    -0.77700
C1953       C  0.83975703  0.02742941  0.32654730     0.84500
C1954       C  0.77271337  0.49633276  0.26188445     0.84800
O1955       O  0.78973181  0.48338612  0.27069920    -0.80100
O1956       O  0.82094776  0.08606904  0.10902659    -0.77600
C1957       C  0.76447704  0.11219934  0.17803672     0.83400
O1958       O  0.87259771  0.10936568  0.19305021    -0.78700
O1959       O  0.76431785  0.02852026  0.22975040    -0.80200
O1960       O  0.72574357  0.49744615  0.14511471    -0.80000
O1961       O  0.81059899  0.03351879  0.10750493    -0.78600
Zn1962     Zn  0.80716189  0.09030514  0.14790430     1.55700
O1963       O  0.72262240  0.52713076  0.18053438    -0.80000
Cd1964     Cd  0.77962612  0.01477872  0.14536952     1.59700
Cd1965     Cd  0.83439710  0.05749063  0.19340442     1.59600
O1966       O  0.79173568  0.48164981  0.16610405    -0.80000
O1967       O  0.79805888  0.05392240  0.16995503    -1.90500
Cd1968     Cd  0.76687138  0.05477894  0.19631264     1.59900
O1969       O  0.84343968  0.52052759  0.17964491    -0.80000
O1970       O  0.76670575  0.09887030  0.20035022    -0.78600
C1971       C  0.87213320  0.13228399  0.17813044     0.83900
C1972       C  0.82482435  0.06343374  0.09723193     0.83600
O1973       O  0.77337844  0.10572347  0.15474592    -0.77600
C1974       C  0.70908394  0.50620004  0.16137326     0.84400
O1975       O  0.84842112  0.12617728  0.16175333    -0.77700
C1976       C  0.82098030  0.48982163  0.17526455     0.84500
C1977       C  0.78502838  0.02093333  0.23972744     0.84800
O1978       O  0.81509530  0.03407167  0.23102209    -0.80100
O1979       O  0.57946086  0.32748472  0.39281403    -0.77600
C1980       C  0.60554417  0.27096476  0.32379967     0.83400
O1981       O  0.60272067  0.37915079  0.30882923    -0.78700
O1982       O  0.52195493  0.27093693  0.27205185    -0.80200
O1983       O  0.99081603  0.23226007  0.35670220    -0.80000
O1984       O  0.52690406  0.31712009  0.39434439    -0.78600
Zn1985     Zn  0.58368303  0.31368475  0.35393030     1.55700
O1986       O  0.02043870  0.22913967  0.32123132    -0.80000
Cd1987     Cd  0.50815373  0.28614187  0.35647170     1.59700
Cd1988     Cd  0.55086398  0.34094140  0.30846454     1.59600
O1989       O  0.97500996  0.29823450  0.33573585    -0.80000
O1990       O  0.54729599  0.30458001  0.33188238    -1.90500
Cd1991     Cd  0.54814998  0.27340787  0.30550296     1.59900
O1992       O  0.01387646  0.34994739  0.32221338    -0.80000
O1993       O  0.59222145  0.27319578  0.30148304    -0.78600
C1994       C  0.62564939  0.37867044  0.32372117     0.83900
C1995       C  0.55682353  0.33135566  0.40461484     0.83600
O1996       O  0.59907914  0.27988444  0.34708644    -0.77600
C1997       C  0.99952811  0.21559853  0.34040630     0.84400
O1998       O  0.61955771  0.35494256  0.34007506    -0.77700
C1999       C  0.98317081  0.32747432  0.32657404     0.84500
C2000       C  0.51437636  0.29166119  0.26209267     0.84800
O2001       O  0.52749822  0.32171067  0.27082772    -0.80100
O2002       O  0.92468384  0.25014975  0.10915865    -0.77600
C2003       C  0.89869428  0.16739787  0.17796935     0.83400
O2004       O  0.90149755  0.27843242  0.19321550    -0.78700
O2005       O  0.98203216  0.25096405  0.23003887    -0.80200
O2006       O  0.51344288  0.24359218  0.14526200    -0.80000
O2007       O  0.97729484  0.29229843  0.10758333    -0.78600
Zn2008     Zn  0.92049051  0.23205601  0.14801082     1.55700
O2009       O  0.48398155  0.21099124  0.18085297    -0.80000
Cd2010     Cd  0.99602022  0.28005620  0.14544693     1.59700
Cd2011     Cd  0.95335391  0.29213102  0.19352007     1.59600
O2012       O  0.52912473  0.32536750  0.16615528    -0.80000
O2013       O  0.95690383  0.25932473  0.17008016    -1.90500
Cd2014     Cd  0.95605657  0.22732243  0.19646644     1.59900
O2015       O  0.49020593  0.33812250  0.17961776    -0.80000
O2016       O  0.91203521  0.18290802  0.20031497    -0.78600
C2017       C  0.87854483  0.25501015  0.17830534     0.83900
C2018       C  0.94735261  0.27665225  0.09734658     0.83600
O2019       O  0.90513505  0.18284438  0.15472424    -0.77600
C2020       C  0.50485768  0.21833263  0.16165736     0.84400
O2021       O  0.88460434  0.23736172  0.16192345    -0.77700
C2022       C  0.52091347  0.34643543  0.17523582     0.84500
C2023       C  0.98979393  0.27937442  0.23992746     0.84800
O2024       O  0.97688423  0.29641984  0.23109943    -0.80100
O2025       O  0.68319480  0.26725747  0.39268313    -0.77600
C2026       C  0.73980700  0.34995617  0.32373647     0.83400
O2027       O  0.63157137  0.23901070  0.30861447    -0.78700
O2028       O  0.73979985  0.26637109  0.27193114    -0.80200
O2029       O  0.77826459  0.27362484  0.35650319    -0.80000
O2030       O  0.69341361  0.22498622  0.39412769    -0.78600
Zn2031     Zn  0.69701631  0.28532577  0.35381099     1.55700
O2032       O  0.78151545  0.30652133  0.32114548    -0.80000
Cd2033     Cd  0.72435796  0.23721029  0.35624718     1.59700
Cd2034     Cd  0.66966322  0.22522170  0.30824986     1.59600
O2035       O  0.71216604  0.19197094  0.33545491    -0.80000
O2036       O  0.70603839  0.25801036  0.33171105    -1.90500
Cd2037     Cd  0.73730123  0.29007405  0.30539052     1.59900
O2038       O  0.66046441  0.17914543  0.32201581    -0.80000
O2039       O  0.73761373  0.33440155  0.30141043    -0.78600
C2040       C  0.63207969  0.26240799  0.32357949     0.83900
C2041       C  0.67925730  0.24071113  0.40444394     0.83600
O2042       O  0.73088577  0.33456393  0.34701320    -0.77600
C2043       C  0.79499548  0.29903450  0.34025771     0.84400
O2044       O  0.65579543  0.27999561  0.33998173    -0.77700
C2045       C  0.68288585  0.17087725  0.32635100     0.84500
C2046       C  0.71910031  0.23800338  0.26198418     0.84800
O2047       O  0.68902779  0.22104178  0.27067556    -0.80100
O2048       O  0.76074409  0.18985372  0.10920818    -0.77600
C2049       C  0.84345991  0.24650996  0.17811731     0.83400
O2050       O  0.73250768  0.13821344  0.19320366    -0.78700
O2051       O  0.75983199  0.24640664  0.22995997    -0.80200
O2052       O  0.76713287  0.28490688  0.14534475    -0.80000
O2053       O  0.71845055  0.20004195  0.10778512    -0.78600
Zn2054     Zn  0.77883945  0.20369347  0.14806724     1.55700
O2055       O  0.80000117  0.28819670  0.18074048    -0.80000
Cd2056     Cd  0.73070998  0.23101406  0.14564020     1.59700
Cd2057     Cd  0.71871762  0.17630123  0.19358994     1.59600
O2058       O  0.68548401  0.21884545  0.16644326    -0.80000
O2059       O  0.75152280  0.21270607  0.17016939    -1.90500
Cd2060     Cd  0.78357086  0.24397728  0.19649307     1.59900
O2061       O  0.67264342  0.16712310  0.17981921    -0.80000
O2062       O  0.82790986  0.24430428  0.20045022    -0.78600
C2063       C  0.75593458  0.13874428  0.17826388     0.83900
C2064       C  0.73417640  0.18588911  0.09746690     0.83600
O2065       O  0.82806411  0.23759810  0.15484258    -0.77600
C2066       C  0.79252954  0.30165442  0.16159853     0.84400
O2067       O  0.77355020  0.16248072  0.16188773    -0.77700
C2068       C  0.66438007  0.18955390  0.17551580     0.84500
C2069       C  0.73145952  0.22568049  0.23988984     0.84800
O2070       O  0.71451824  0.19561751  0.23117727    -0.80100
O2071       O  0.65424570  0.25277817  0.44244917    -0.77600
C2072       C  0.59770646  0.27885670  0.51143766     0.83400
O2073       O  0.70592176  0.27605708  0.52642050    -0.78700
O2074       O  0.59774589  0.19535134  0.56329091    -0.80200
O2075       O  0.55902942  0.16417473  0.47857654    -0.80000
O2076       O  0.64384939  0.20021547  0.44091847    -0.78600
Zn2077     Zn  0.64044212  0.25700294  0.48133569     1.55700
O2078       O  0.55589579  0.19373481  0.51409279    -0.80000
Cd2079     Cd  0.61290043  0.18149684  0.47880327     1.59700
Cd2080     Cd  0.66771739  0.22418794  0.52679263     1.59600
O2081       O  0.62499705  0.14834805  0.49951304    -0.80000
O2082       O  0.63134111  0.22062855  0.50340193    -1.90500
Cd2083     Cd  0.60017899  0.22148965  0.52980137     1.59900
O2084       O  0.67672968  0.18721770  0.51299215    -0.80000
O2085       O  0.59994129  0.26555409  0.53376469    -0.78600
C2086       C  0.70543196  0.29898262  0.51153002     0.83900
C2087       C  0.65809204  0.23012968  0.43064267     0.83600
O2088       O  0.60662784  0.27237935  0.48815751    -0.77600
C2089       C  0.54236225  0.17285512  0.49489463     0.84400
O2090       O  0.68169410  0.29288651  0.49518510    -0.77700
C2091       C  0.65425334  0.15651161  0.50863682     0.84500
C2092       C  0.61845004  0.18771704  0.57320746     0.84800
O2093       O  0.64847718  0.20077807  0.56442270    -0.80100
O2094       O  0.57694321  0.09796016  0.72613239    -0.77600
C2095       C  0.99422932  0.07188262  0.65727393     0.83400
O2096       O  0.60521002  0.07474298  0.64203044    -0.78700
O2097       O  0.57778346  0.15540566  0.60530579    -0.80200
O2098       O  0.57037276  0.18670395  0.69002045    -0.80000
O2099       O  0.61909673  0.15056948  0.72770381    -0.78600
Zn2100     Zn  0.55886992  0.09374822  0.68727687     1.55700
O2101       O  0.53769277  0.15714279  0.65450014    -0.80000
Cd2102     Cd  0.60685275  0.16928835  0.68983537     1.59700
Cd2103     Cd  0.61890311  0.12660578  0.64172105     1.59600
O2104       O  0.65215536  0.20237765  0.66910524    -0.80000
O2105       O  0.58613061  0.13016547  0.66520862    -1.90500
Cd2106     Cd  0.55411950  0.12932014  0.63884129     1.59900
O2107       O  0.66490284  0.16346818  0.65559127    -0.80000
O2108       O  0.00975898  0.08525343  0.63494154    -0.78600
C2109       C  0.58182191  0.05180315  0.65697636     0.83900
C2110       C  0.60344417  0.12062865  0.73794404     0.83600
O2111       O  0.50964901  0.07832969  0.68053271    -0.77600
C2112       C  0.54506255  0.17805822  0.67366723     0.84400
O2113       O  0.56420814  0.05788018  0.67338153    -0.77700
C2114       C  0.67321368  0.19417119  0.65998765     0.84500
C2115       C  0.60616304  0.16312206  0.59536982     0.84800
O2116       O  0.62316676  0.15013902  0.60413929    -0.80100
O2117       O  0.59398445  0.35648379  0.44255109    -0.77600
C2118       C  0.67673621  0.41312216  0.51147361     0.83400
O2119       O  0.56573681  0.30487666  0.52658227    -0.78700
O2120       O  0.59313719  0.41306337  0.56331637    -0.80200
O2121       O  0.60040925  0.45158648  0.47871384    -0.80000
O2122       O  0.55172459  0.36672242  0.44111268    -0.78600
Zn2123     Zn  0.61208957  0.37032903  0.48141111     1.55700
O2124       O  0.63327835  0.45484908  0.51410025    -0.80000
Cd2125     Cd  0.56398848  0.39769157  0.47897951     1.59700
Cd2126     Cd  0.55197541  0.34297917  0.52694473     1.59600
O2127       O  0.51876405  0.38553345  0.49977621    -0.80000
O2128       O  0.58478944  0.37936903  0.50351240    -1.90500
Cd2129     Cd  0.61685075  0.41062378  0.52983865     1.59900
O2130       O  0.50591500  0.33381369  0.51316883    -0.80000
O2131       O  0.66118760  0.41094316  0.53380043    -0.78600
C2132       C  0.58915134  0.30539049  0.51163870     0.83900
C2133       C  0.56743119  0.35254529  0.43080003     0.83600
O2134       O  0.66133697  0.40419133  0.48819931    -0.77600
C2135       C  0.62580346  0.46832238  0.49497303     0.84400
O2136       O  0.60675850  0.32911039  0.49524706    -0.77700
C2137       C  0.99765758  0.35624557  0.50885253     0.84500
C2138       C  0.56476392  0.39235281  0.57325458     0.84800
O2139       O  0.54779403  0.36229762  0.56453484    -0.80100
O2140       O  0.51656544  0.43395999  0.72606606    -0.77600
C2141       C  0.57330006  0.01670868  0.65716331     0.83400
O2142       O  0.96498254  0.40565820  0.64205274    -0.78700
O2143       O  0.57314710  0.43307800  0.60527598    -0.80200
O2144       O  0.61170492  0.44039665  0.68994003    -0.80000
O2145       O  0.52682916  0.39172064  0.72753586    -0.78600
Zn2146     Zn  0.53043934  0.45205822  0.68720404     1.55700
O2147       O  0.61497272  0.47317097  0.65447742    -0.80000
Cd2148     Cd  0.55780830  0.40397335  0.68967672     1.59700
Cd2149     Cd  0.50309810  0.39192105  0.64170351     1.59600
O2150       O  0.54565355  0.35873502  0.66890476    -0.80000
O2151       O  0.53949414  0.42475851  0.66511593    -1.90500
Cd2152     Cd  0.57074703  0.45679568  0.63876778     1.59900
O2153       O  0.49393203  0.34587944  0.65550814    -0.80000
O2154       O  0.57113854  0.00117207  0.63483347    -0.78600
C2155       C  0.96549624  0.42908693  0.65697332     0.83900
C2156       C  0.51263535  0.40741890  0.73783148     0.83600
O2157       O  0.56432558  0.00129570  0.68042897    -0.77600
C2158       C  0.62844433  0.46573974  0.67363404     0.84400
O2159       O  0.98922436  0.44672458  0.67335013    -0.77700
C2160       C  0.51636660  0.33762649  0.65982485     0.84500
C2161       C  0.55244427  0.40468718  0.59536824     0.84800
O2162       O  0.52240184  0.38770103  0.60412018    -0.80100
O2163       O  0.75798124  0.41678938  0.44247886    -0.77600
C2164       C  0.73200677  0.33408786  0.51134907     0.83400
O2165       O  0.73476270  0.44500661  0.52663188    -0.78700
O2166       O  0.81551919  0.41762342  0.56330022    -0.80200
O2167       O  0.84676489  0.41029765  0.47855414    -0.80000
O2168       O  0.81056832  0.45898671  0.44092138    -0.78600
Zn2169     Zn  0.75380127  0.39872380  0.48134967     1.55700
O2170       O  0.81723736  0.37759901  0.51407599    -0.80000
Cd2171     Cd  0.82932227  0.44675664  0.47878227     1.59700
Cd2172     Cd  0.78663707  0.45872933  0.52695151     1.59600
O2173       O  0.86240619  0.49205875  0.49952535    -0.80000
O2174       O  0.79021527  0.42599896  0.50342424    -1.90500
Cd2175     Cd  0.78941306  0.39398627  0.52977274     1.59900
O2176       O  0.82349815  0.00476786  0.51313037    -0.80000
O2177       O  0.74537509  0.34960986  0.53368441    -0.78600
C2178       C  0.71182892  0.42163155  0.51167104     0.83900
C2179       C  0.78063269  0.44330909  0.43067181     0.83600
O2180       O  0.73843843  0.34951577  0.48809532    -0.77600
C2181       C  0.83813843  0.38498359  0.49489715     0.84400
O2182       O  0.71791282  0.40403185  0.49525439    -0.77700
C2183       C  0.85420081  0.01309805  0.50869397     0.84500
C2184       C  0.82320214  0.44597984  0.57325972     0.84800
O2185       O  0.81017406  0.46295716  0.56452437    -0.80100
O2186       O  0.91281722  0.49409812  0.72615050    -0.77600
C2187       C  0.93894344  0.43761212  0.65717534     0.83400
O2188       O  0.93621246  0.04578840  0.64215992    -0.78700
O2189       O  0.85538370  0.43755165  0.60537566    -0.80200
O2190       O  0.82419923  0.39897305  0.69002035    -0.80000
O2191       O  0.86028620  0.48381763  0.72762125    -0.78600
Zn2192     Zn  0.91707595  0.48032136  0.68727366     1.55700
O2193       O  0.85387935  0.39582460  0.65460721    -0.80000
Cd2194     Cd  0.84155315  0.45284905  0.68975314     1.59700
Cd2195     Cd  0.88432931  0.50761262  0.64176142     1.59600
O2196       O  0.80844754  0.46497030  0.66898731    -0.80000
O2197       O  0.88071977  0.47125513  0.66519672    -1.90500
Cd2198     Cd  0.88157954  0.44006635  0.63884042     1.59900
O2199       O  0.84735353  0.51667368  0.65548156    -0.80000
O2200       O  0.92565611  0.43986792  0.63484712    -0.78600
C2201       C  0.95912003  0.04530634  0.65708389     0.83900
C2202       C  0.89018810  0.49800826  0.73792026     0.83600
O2203       O  0.93243293  0.44649198  0.68045993    -0.77600
C2204       C  0.83294323  0.38230238  0.67376752     0.84400
O2205       O  0.95300006  0.02157873  0.67344853    -0.77700
C2206       C  0.81663647  0.49422151  0.65983636     0.84500
C2207       C  0.84780721  0.45827535  0.59541109     0.84800
O2208       O  0.86094302  0.48833241  0.60413382    -0.80100
O2209       O  0.91022757  0.26458796  0.05938690    -0.77600
C2210       C  0.82748658  0.23855161  0.99055610     0.83400
O2211       O  0.93840790  0.24133568  0.97524028    -0.78700
O2212       O  0.91097993  0.32207508  0.93861961    -0.80200
O2213       O  0.90369294  0.35334901  0.02331055    -0.80000
O2214       O  0.95241499  0.31718326  0.06092665    -0.78600
Zn2215     Zn  0.89213310  0.26036988  0.02053242     1.55700
O2216       O  0.87093160  0.32374558  0.98784366    -0.80000
Cd2217     Cd  0.94015026  0.33590843  0.02307288     1.59700
Cd2218     Cd  0.95210972  0.29319762  0.97492885     1.59600
O2219       O  0.98542619  0.36898978  0.00230273    -0.80000
O2220       O  0.91938634  0.29677817  0.99845961    -1.90500
Cd2221     Cd  0.88734995  0.29595208  0.97213365     1.59900
O2222       O  0.99815215  0.33008753  0.98872069    -0.80000
O2223       O  0.84300081  0.25190157  0.96821470    -0.78600
C2224       C  0.91503799  0.21840042  0.99020194     0.83900
C2225       C  0.93675018  0.28724960  0.07118062     0.83600
O2226       O  0.84292209  0.24500260  0.01380715    -0.77600
C2227       C  0.87834530  0.34468239  0.00699768     0.84400
O2228       O  0.89744085  0.22448027  0.00662561    -0.77700
C2229       C  0.50647199  0.36078946  0.99314244     0.84500
C2230       C  0.93932904  0.32974612  0.92864894     0.84800
O2231       O  0.95629757  0.31669924  0.93735976    -0.80100
O2232       O  0.98754866  0.41944338  0.77580284    -0.77600
C2233       C  0.93096964  0.44548890  0.84475818     0.83400
O2234       O  0.53916107  0.44274308  0.85981923    -0.78700
O2235       O  0.93091729  0.36195646  0.89655913    -0.80200
O2236       O  0.89234388  0.33077907  0.81190764    -0.80000
O2237       O  0.97721475  0.36689876  0.77429142    -0.78600
Zn2238     Zn  0.97372403  0.42365877  0.81467891     1.55700
O2239       O  0.88919982  0.36043452  0.84734125    -0.80000
Cd2240     Cd  0.94622825  0.34814325  0.81215933     1.59700
Cd2241     Cd  0.00097857  0.39087267  0.86018000     1.59600
O2242       O  0.95833167  0.31501716  0.83291018    -0.80000
O2243       O  0.96463405  0.38728738  0.83673887    -1.90500
Cd2244     Cd  0.93344290  0.38814727  0.86309658     1.59900
O2245       O  0.01002857  0.35389267  0.84646061    -0.80000
O2246       O  0.93322228  0.43220630  0.86708895    -0.78600
C2247       C  0.53868222  0.46566375  0.84491470     0.83900
C2248       C  0.99143768  0.39681270  0.76401281     0.83600
O2249       O  0.93987652  0.43899522  0.82147890    -0.77600
C2250       C  0.87567250  0.33950382  0.82817897     0.84400
O2251       O  0.51496207  0.45956210  0.82854620    -0.77700
C2252       C  0.98756979  0.32318471  0.84208306     0.84500
C2253       C  0.95163011  0.35436040  0.90651315     0.84800
O2254       O  0.98168646  0.36748304  0.89779203    -0.80100
O2255       O  0.84994764  0.10059183  0.05930545    -0.77600
C2256       C  0.90653259  0.18331152  0.99039093     0.83400
O2257       O  0.79824312  0.07230017  0.97535412    -0.78700
O2258       O  0.90635687  0.09966725  0.93852945    -0.80200
O2259       O  0.94499928  0.10700498  0.02311562    -0.80000
O2260       O  0.86016965  0.05832112  0.06073043    -0.78600
Zn2261     Zn  0.86375888  0.11868415  0.02045155     1.55700
O2262       O  0.94824297  0.13984392  0.98771217    -0.80000
Cd2263     Cd  0.89111367  0.07057695  0.02286033     1.59700
Cd2264     Cd  0.83633633  0.05853170  0.97497069     1.59600
O2265       O  0.87894214  0.02534977  0.00206873    -0.80000
O2266       O  0.87276811  0.09137115  0.99834941    -1.90500
Cd2267     Cd  0.90399289  0.12341665  0.97200568     1.59900
O2268       O  0.82718473  0.01249434  0.98878380    -0.80000
O2269       O  0.90431600  0.16775692  0.96805898    -0.78600
C2270       C  0.79878625  0.09573911  0.99028109     0.83900
C2271       C  0.84600608  0.07403564  0.07104934     0.83600
O2272       O  0.89763502  0.16791839  0.01366776    -0.77600
C2273       C  0.96172583  0.13238767  0.00684593     0.84400
O2274       O  0.82253263  0.11336784  0.00664486    -0.77700
C2275       C  0.84962562  0.00423625  0.99305086     0.84500
C2276       C  0.88564340  0.07127631  0.92862509     0.84800
O2277       O  0.85559979  0.05430110  0.93737402    -0.80100
O2278       O  0.92731841  0.02311596  0.77587325    -0.77600
C2279       C  0.51002709  0.07978421  0.84481005     0.83400
O2280       O  0.89898172  0.47149537  0.85986755    -0.78700
O2281       O  0.92636491  0.07963257  0.89661990    -0.80200
O2282       O  0.93373049  0.11823690  0.81201685    -0.80000
O2283       O  0.88508052  0.03338574  0.77439256    -0.78600
Zn2284     Zn  0.94539868  0.03696718  0.81473372     1.55700
O2285       O  0.96653147  0.12148469  0.84745175    -0.80000
Cd2286     Cd  0.89730892  0.06433794  0.81225756     1.59700
Cd2287     Cd  0.88522612  0.00959421  0.86020121     1.59600
O2288       O  0.85205231  0.05215255  0.83301124    -0.80000
O2289       O  0.91808023  0.04600264  0.83680696    -1.90500
Cd2290     Cd  0.95011324  0.07724279  0.86315517     1.59900
O2291       O  0.83919562  0.00041604  0.84635791    -0.80000
O2292       O  0.49446549  0.07759652  0.86713138    -0.78600
C2293       C  0.92242190  0.47202291  0.84495284     0.83900
C2294       C  0.90078297  0.01919461  0.76410201     0.83600
O2295       O  0.99463753  0.07084081  0.82153304    -0.77600
C2296       C  0.95908954  0.13496825  0.82831104     0.84400
O2297       O  0.94005800  0.49575391  0.82858028    -0.77700
C2298       C  0.83093952  0.02285039  0.84205706     0.84500
C2299       C  0.89796607  0.05893656  0.90652150     0.84800
O2300       O  0.88097732  0.02889411  0.89777603    -0.80100
O2301       O  0.74620850  0.16083565  0.05948066    -0.77600
C2302       C  0.77225352  0.10429279  0.99049652     0.83400
O2303       O  0.76945360  0.21247488  0.97550257    -0.78700
O2304       O  0.68871457  0.10429600  0.93870798    -0.80200
O2305       O  0.65754084  0.06560894  0.02335771    -0.80000
O2306       O  0.69364662  0.15045295  0.06102550    -0.78600
Zn2307     Zn  0.75040865  0.14701627  0.02060449     1.55700
O2308       O  0.68716770  0.06250238  0.98788294    -0.80000
Cd2309     Cd  0.67488961  0.11949220  0.02315147     1.59700
Cd2310     Cd  0.71758336  0.17429233  0.97516071     1.59600
O2311       O  0.64175688  0.13162359  0.00244609    -0.80000
O2312       O  0.71402487  0.13792801  0.99856054    -1.90500
Cd2313     Cd  0.71489434  0.10677326  0.97216966     1.59900
O2314       O  0.68064188  0.18334485  0.98895997    -0.80000
O2315       O  0.75895929  0.10655240  0.96817412    -0.78600
C2316       C  0.79238249  0.21198331  0.99038704     0.83900
C2317       C  0.72356928  0.16469743  0.07128708     0.83600
O2318       O  0.76576998  0.11319221  0.01378358    -0.77600
C2319       C  0.66625134  0.04895378  0.00705284     0.84400
O2320       O  0.78628996  0.18825347  0.00673844    -0.77700
C2321       C  0.64993159  0.16087877  0.99331317     0.84500
C2322       C  0.68106475  0.12498724  0.92879176     0.84800
O2323       O  0.69413739  0.15502216  0.93755350    -0.80100
O2324       O  0.59136529  0.08349921  0.77589744    -0.77600
C2325       C  0.56525919  0.50076680  0.84474289     0.83400
O2326       O  0.56804987  0.11169838  0.85997461    -0.78700
O2327       O  0.64875874  0.08430883  0.89670850    -0.80200
O2328       O  0.68005219  0.07692703  0.81200467    -0.80000
O2329       O  0.64395965  0.12568948  0.77437781    -0.78600
Zn2330     Zn  0.58712121  0.06540088  0.81474922     1.55700
O2331       O  0.65047709  0.04419793  0.84749765    -0.80000
Cd2332     Cd  0.66265024  0.11340762  0.81223717     1.59700
Cd2333     Cd  0.61992180  0.12541376  0.86031741     1.59600
O2334       O  0.69573246  0.15868111  0.83299869    -0.80000
O2335       O  0.62350968  0.09265790  0.83683829    -1.90500
Cd2336     Cd  0.62266926  0.06063550  0.86318510     1.59900
O2337       O  0.65680708  0.17142647  0.84646936    -0.80000
O2338       O  0.57859731  0.51629025  0.86708512    -0.78600
C2339       C  0.54512364  0.08830897  0.84502005     0.83900
C2340       C  0.61403283  0.11002658  0.76411300     0.83600
O2341       O  0.57173637  0.01619067  0.82148545    -0.77600
C2342       C  0.67139254  0.05158930  0.82832536     0.84400
O2343       O  0.55121879  0.07070205  0.82862137    -0.77700
C2344       C  0.68751700  0.17974131  0.84209089     0.84500
C2345       C  0.65644820  0.11267660  0.90665074     0.84800
O2346       O  0.64342758  0.12965513  0.89790252    -0.80100
O2347       O  0.77325442  0.18275083  0.65489875    -0.77600
C2348       C  0.82486762  0.27661728  0.59749880     0.83400
O2349       O  0.87257958  0.27836763  0.69329116    -0.78700
O2350       O  0.79189843  0.32529203  0.66647068    -0.80200
O2351       O  0.72260787  0.21082503  0.68086886    -0.80000
O2352       O  0.76647947  0.18285933  0.70049960    -0.78600
Zn2353     Zn  0.80712241  0.23199267  0.64812865     1.55700
O2354       O  0.72585247  0.24364807  0.64545267    -0.80000
Cd2355     Cd  0.76684211  0.22721879  0.69657840     1.59700
Cd2356     Cd  0.83446752  0.29211398  0.69365445     1.59600
O2357       O  0.76441111  0.25090688  0.73007205    -0.80000
O2358       O  0.79807742  0.25928107  0.67023654    -1.90500
Cd2359     Cd  0.77974276  0.28006269  0.64569589     1.59900
O2360       O  0.81513263  0.29631828  0.73122914    -0.80000
O2361       O  0.81068042  0.29231369  0.60781088    -0.78600
C2362       C  0.87206686  0.25495544  0.67834657     0.83900
C2363       C  0.76429901  0.16733021  0.67816126     0.83600
O2364       O  0.82096193  0.25008624  0.60926484    -0.77600
C2365       C  0.70912459  0.21828080  0.66173672     0.84400
O2366       O  0.84834133  0.23733680  0.66196314    -0.77700
C2367       C  0.78508871  0.27931042  0.73997341     0.84500
C2368       C  0.82119506  0.34640581  0.67552504     0.84800
O2369       O  0.84363095  0.33815325  0.67983984    -0.80100
O2370       O  0.67609266  0.27976435  0.84709069    -0.77600
C2371       C  0.77001683  0.33142548  0.90445873     0.83400
O2372       O  0.77168975  0.37908315  0.80869628    -0.78700
O2373       O  0.81866492  0.29844047  0.83548855    -0.80200
O2374       O  0.70416104  0.22912013  0.82118616    -0.80000
O2375       O  0.67623994  0.27300968  0.80148894    -0.75000
Zn2376     Zn  0.72533751  0.31363562  0.85386478     1.55700
O2377       O  0.73702238  0.23238772  0.85657995    -0.80000
Cd2378     Cd  0.72058840  0.27334259  0.80544136     1.59700
Cd2379     Cd  0.78545738  0.34099489  0.80835803     1.59600
O2380       O  0.74434416  0.27092033  0.77198029    -0.80000
O2381       O  0.75263471  0.30459529  0.83177077    -1.90500
Cd2382     Cd  0.77344527  0.28627715  0.85629406     1.59900
O2383       O  0.78968431  0.32169126  0.77078427    -0.80000
O2384       O  0.78572109  0.31724616  0.89414986    -0.78600
C2385       C  0.74826694  0.37856400  0.82362924     0.83900
C2386       C  0.66069208  0.27083110  0.82381775     0.83600
O2387       O  0.74346185  0.32748749  0.89271140    -0.77600
C2388       C  0.71162815  0.21565087  0.84032212     0.84400
O2389       O  0.73065673  0.35484638  0.84002185    -0.77700
C2390       C  0.77273066  0.29163502  0.76206443     0.84500
C2391       C  0.83976991  0.32774474  0.82644282     0.84800
O2392       O  0.83150604  0.35017733  0.82216021    -0.80100
O2393       O  0.73081192  0.41159936  0.84709188    -0.77600
C2394       C  0.67932481  0.45382036  0.90455588     0.83400
O2395       O  0.63152257  0.40789464  0.80878340    -0.78700
O2396       O  0.71238314  0.03560601  0.83570417    -0.80200
O2397       O  0.78149375  0.99016768  0.82116561    -0.80000
O2398       O  0.73744607  0.41836007  0.80148006    -0.78600
Zn2399     Zn  0.69698749  0.42696157  0.85388382     1.55700
O2400       O  0.77838156  0.01982267  0.85661610    -0.80000
Cd2401     Cd  0.73722701  0.46242632  0.80544164     1.59700
Cd2402     Cd  0.66971439  0.45977369  0.80841630     1.59600
O2403       O  0.73973083  0.48857021  0.77194975    -0.80000
O2404       O  0.70607241  0.46332960  0.83182025    -1.90500
Cd2405     Cd  0.72450596  0.00247152  0.85640361     1.59900
O2406       O  0.68903199  0.48322206  0.77081107    -0.80000
O2407       O  0.69355820  0.48373543  0.89428279    -0.78600
C2408       C  0.63200790  0.38497397  0.82368549     0.83900
C2409       C  0.73970900  0.40509139  0.82381522     0.83600
O2410       O  0.68318747  0.43118015  0.89275688    -0.77600
C2411       C  0.79503814  0.01109946  0.84032655     0.84400
O2412       O  0.65574193  0.39107403  0.84003575    -0.77700
C2413       C  0.71906100  0.49625178  0.76203706     0.84500
C2414       C  0.68312131  0.02743085  0.82658817     0.84800
O2415       O  0.66066030  0.99672229  0.82221814    -0.80100
O2416       O  0.82788938  0.10567387  0.65473830    -0.77600
C2417       C  0.73404569  0.06338848  0.59734201     0.83400
O2418       O  0.73239002  0.10929936  0.69328983    -0.78700
O2419       O  0.68540516  0.48165300  0.66622296    -0.80200
O2420       O  0.79987287  0.52687504  0.68071879    -0.80000
O2421       O  0.82779033  0.09873381  0.70032935    -0.78600
Zn2422     Zn  0.77867020  0.09027069  0.64799551     1.55700
O2423       O  0.76715559  0.49731822  0.64521508    -0.80000
Cd2424     Cd  0.78343494  0.05466566  0.69641966     1.59700
Cd2425     Cd  0.71868799  0.05743928  0.69359241     1.59600
O2426       O  0.75974277  0.02852279  0.72993089    -0.80000
O2427       O  0.75142523  0.05385893  0.67007300    -1.90500
Cd2428     Cd  0.73067679  0.01473722  0.64544888     1.59900
O2429       O  0.71444730  0.03393602  0.73117235    -0.80000
O2430       O  0.71839522  0.03345270  0.60759290    -0.78600
C2431       C  0.75576629  0.13223387  0.67833343     0.83900
C2432       C  0.84331328  0.11211336  0.67799559     0.83600
O2433       O  0.76056299  0.08605592  0.60913965    -0.77600
C2434       C  0.79248586  0.50596533  0.66154511     0.84400
O2435       O  0.77335677  0.12614929  0.66190714    -0.77700
C2436       C  0.73139109  0.02086831  0.73989442     0.84500
C2437       C  0.66435549  0.48985217  0.67537647     0.84800
O2438       O  0.67266562  0.02055443  0.67977935    -0.80100
O2439       O  0.59898710  0.33446175  0.84714459    -0.77600
C2440       C  0.55676648  0.24065251  0.90456231     0.83400
O2441       O  0.60266061  0.23892936  0.80868070    -0.78700
O2442       O  0.97499562  0.19193240  0.83571833    -0.80200
O2443       O  0.02020060  0.30640501  0.82118776    -0.80000
O2444       O  0.59205790  0.33433239  0.80155291    -0.78600
Zn2445     Zn  0.58362133  0.28525556  0.85390620     1.55700
O2446       O  0.99066475  0.27370488  0.85670567    -0.80000
Cd2447     Cd  0.54800553  0.28997967  0.80549861     1.59700
Cd2448     Cd  0.55079595  0.22522874  0.80834725     1.59600
O2449       O  0.52190909  0.26629839  0.77198737    -0.80000
O2450       O  0.54720644  0.25797557  0.83184383    -1.90500
Cd2451     Cd  0.50808431  0.23722664  0.85646879     1.59900
O2452       O  0.52731752  0.22100016  0.77075262    -0.80000
O2453       O  0.52683088  0.22497589  0.89431387    -0.78600
C2454       C  0.62559970  0.26232396  0.82362179     0.83900
C2455       C  0.60542713  0.34987152  0.82388137     0.83600
O2456       O  0.57941663  0.26718376  0.89276861    -0.77600
C2457       C  0.99930165  0.29902632  0.84036881     0.84400
O2458       O  0.61952071  0.27994578  0.84001823    -0.77700
C2459       C  0.51426895  0.23795797  0.76201751     0.84500
C2460       C  0.98320049  0.17088397  0.82657210     0.84800
O2461       O  0.01390535  0.17920266  0.82216323    -0.80100
O2462       O  0.90510212  0.23753398  0.65483692    -0.77600
C2463       C  0.94727268  0.18600796  0.59731639     0.83400
O2464       O  0.90134064  0.13819621  0.69307511    -0.78700
O2465       O  0.52907938  0.21903762  0.66619960    -0.80200
O2466       O  0.48369607  0.28818689  0.68071948    -0.80000
O2467       O  0.91189843  0.24414648  0.70044772    -0.78600
Zn2468     Zn  0.92043689  0.20369062  0.64800067     1.55700
O2469       O  0.51332418  0.28506025  0.64525493    -0.80000
Cd2470     Cd  0.95595551  0.24392207  0.69643354     1.59700
Cd2471     Cd  0.95321773  0.17637759  0.69346165     1.59600
O2472       O  0.98209719  0.24638192  0.72990403    -0.80000
O2473       O  0.95681211  0.21275123  0.67005222    -1.90500
Cd2474     Cd  0.49595929  0.23117426  0.64547243     1.59900
O2475       O  0.97660127  0.19562665  0.73109489    -0.80000
O2476       O  0.97718732  0.20021363  0.60759452    -0.78600
C2477       C  0.87841941  0.13869364  0.67818235     0.83900
C2478       C  0.89860959  0.24641756  0.67812761     0.83600
O2479       O  0.92464834  0.18990381  0.60911158    -0.77600
C2480       C  0.50461691  0.30172487  0.66155133     0.84400
O2481       O  0.88452355  0.16243602  0.66183965    -0.77700
C2482       C  0.98969236  0.22566567  0.73985037     0.84500
C2483       C  0.52090157  0.18979084  0.67535604     0.84800
O2484       O  0.49018902  0.16733152  0.67971431    -0.80100
O2485       O  0.84277600  0.61316722  0.51370509    -0.77600
C2486       C  0.93665829  0.66481826  0.57113218     0.83400
O2487       O  0.93840247  0.71247883  0.47533866    -0.78700
O2488       O  0.98534645  0.63182447  0.50221743    -0.80200
O2489       O  0.87085115  0.56248839  0.48780355    -0.80000
O2490       O  0.84293150  0.60638377  0.46810772    -0.78600
Zn2491     Zn  0.89202037  0.64702877  0.52050387     1.55700
O2492       O  0.90367186  0.56575544  0.52322974    -0.80000
Cd2493     Cd  0.88727813  0.60672058  0.47207506     1.59700
Cd2494     Cd  0.95216452  0.67437082  0.47499208     1.59600
O2495       O  0.91100665  0.60428943  0.43859943    -0.80000
O2496       O  0.91932392  0.63798028  0.49841306    -1.90500
Cd2497     Cd  0.94009736  0.61965472  0.52297230     1.59900
O2498       O  0.95638373  0.65503295  0.43741378    -0.80000
O2499       O  0.95235106  0.65062165  0.56083318    -0.78600
C2500       C  0.91498028  0.71196410  0.49027332     0.83900
C2501       C  0.82737969  0.60421618  0.49043081     0.83600
O2502       O  0.91011659  0.66089522  0.55936941    -0.77600
C2503       C  0.87830299  0.54901553  0.50694642     0.84400
O2504       O  0.89736156  0.68824068  0.50665721    -0.77700
C2505       C  0.93939623  0.62498357  0.42867886     0.84500
C2506       C  0.50646216  0.66111521  0.49315165     0.84800
O2507       O  0.99821006  0.68354816  0.48882190    -0.80100
O2508       O  0.93973866  0.51599693  0.32149113    -0.77600
C2509       C  0.99144729  0.60989267  0.26411804     0.83400
O2510       O  0.53912439  0.61158348  0.35983006    -0.78700
O2511       O  0.95847473  0.65858741  0.33307841    -0.80200
O2512       O  0.88914445  0.54409714  0.34745042    -0.80000
O2513       O  0.93304993  0.01616283  0.36709967    -0.78600
Zn2514     Zn  0.97362504  0.56522936  0.31471280     1.55700
O2515       O  0.89240208  0.57692044  0.31202885    -0.80000
Cd2516     Cd  0.93338224  0.56051235  0.36316583     1.59700
Cd2517     Cd  0.00103923  0.62537607  0.36021667     1.59600
O2518       O  0.93099426  0.58425081  0.39665402    -0.80000
O2519       O  0.96461805  0.59255204  0.33681809    -1.90500
Cd2520     Cd  0.94629823  0.61335356  0.31228665     1.59900
O2521       O  0.98175664  0.62960489  0.39781525    -0.80000
O2522       O  0.97728262  0.62561129  0.27442966    -0.78600
C2523       C  0.53858232  0.58814516  0.34490065     0.83900
C2524       C  0.93084086  0.00060701  0.34476915     0.83600
O2525       O  0.98747676  0.58332358  0.27585833    -0.77600
C2526       C  0.87566825  0.55154701  0.32830812     0.84400
O2527       O  0.51483870  0.57052416  0.32853161    -0.77700
C2528       C  0.95171128  0.61263727  0.40656536     0.84500
C2529       C  0.98777721  0.67969378  0.34213062     0.84800
O2530       O  0.01021149  0.67143145  0.34641858    -0.80100
O2531       O  0.99448996  0.93890093  0.32139770    -0.77600
C2532       C  0.90071798  0.89668471  0.26398373     0.83400
O2533       O  0.89896007  0.94258093  0.35991081    -0.78700
O2534       O  0.85195929  0.81493355  0.33285917    -0.80200
O2535       O  0.96638067  0.86009868  0.34745151    -0.80000
O2536       O  0.49441931  0.93199673  0.36698811    -0.78600
Zn2537     Zn  0.94528295  0.92355283  0.31466729     1.55700
O2538       O  0.93371209  0.83057857  0.31191262    -0.80000
Cd2539     Cd  0.95002478  0.88797253  0.36310526     1.59700
Cd2540     Cd  0.88525913  0.89071947  0.36024079     1.59600
O2541       O  0.92640374  0.86193656  0.39665628    -0.80000
O2542       O  0.91801027  0.88714301  0.33674217    -1.90500
Cd2543     Cd  0.89725875  0.84801965  0.31211548     1.59900
O2544       O  0.88102550  0.86721145  0.39782446    -0.80000
O2545       O  0.88504032  0.86675062  0.27423690    -0.78600
C2546       C  0.92234690  0.96552103  0.34496456     0.83900
C2547       C  0.50993182  0.94534211  0.34464525     0.83600
O2548       O  0.92722395  0.91934473  0.27579731    -0.77600
C2549       C  0.95900752  0.83919646  0.32827495     0.84400
O2550       O  0.93996942  0.95944895  0.32856177    -0.77700
C2551       C  0.89803108  0.85423078  0.40659436     0.84500
C2552       C  0.83091186  0.82313938  0.34200550     0.84800
O2553       O  0.83923374  0.85384349  0.34641527    -0.80100
O2554       O  0.89750453  0.74496768  0.51376734    -0.77600
C2555       C  0.84602976  0.78721163  0.57129792     0.83400
O2556       O  0.79822841  0.74126625  0.47547791    -0.78700
O2557       O  0.87910336  0.86899113  0.50237582    -0.80200
O2558       O  0.94822978  0.82358546  0.48793502    -0.80000
O2559       O  0.90420479  0.75182059  0.46816392    -0.78600
Zn2560     Zn  0.86368312  0.76033746  0.52060581     1.55700
O2561       O  0.94508323  0.85321095  0.52339025    -0.80000
Cd2562     Cd  0.90397968  0.79588159  0.47218146     1.59700
Cd2563     Cd  0.83643201  0.79312860  0.47510201     1.59600
O2564       O  0.90648090  0.82208808  0.43872968    -0.80000
O2565       O  0.87278163  0.79671599  0.49854770    -1.90500
Cd2566     Cd  0.89120098  0.83586171  0.52313207     1.59900
O2567       O  0.85568471  0.81649132  0.43746856    -0.80000
O2568       O  0.86023940  0.81712162  0.56101276    -0.78600
C2569       C  0.79869692  0.71834547  0.49038933     0.83900
C2570       C  0.90643195  0.73850285  0.49048402     0.83600
O2571       O  0.84990474  0.76457640  0.55949866    -0.77600
C2572       C  0.96175583  0.84449603  0.50711093     0.84400
O2573       O  0.82241772  0.72444518  0.50675703    -0.77700
C2574       C  0.88574624  0.82964280  0.42875430     0.84500
C2575       C  0.84987118  0.86082780  0.49318969     0.84800
O2576       O  0.82740791  0.83012197  0.48881349    -0.80100
O2577       O  0.57157354  0.57065045  0.32140066    -0.77600
C2578       C  0.61388433  0.51921250  0.26388512     0.83400
O2579       O  0.56796611  0.97144614  0.35972094    -0.78700
O2580       O  0.69566301  0.55233551  0.33275268    -0.80200
O2581       O  0.65022041  0.62143561  0.34725266    -0.80000
O2582       O  0.57844958  0.57737822  0.36700206    -0.78600
Zn2583     Zn  0.58699635  0.53686791  0.31456895     1.55700
O2584       O  0.67984878  0.61830989  0.31178865    -0.80000
Cd2585     Cd  0.62252804  0.57717669  0.36300216     1.59700
Cd2586     Cd  0.61983513  0.50965628  0.36006606     1.59600
O2587       O  0.64874702  0.57969737  0.39646541    -0.80000
O2588       O  0.62338374  0.54599499  0.33662839    -1.90500
Cd2589     Cd  0.66251862  0.56443165  0.31203048     1.59900
O2590       O  0.64326271  0.52894818  0.39768267    -0.80000
O2591       O  0.64380160  0.53346823  0.27415666    -0.78600
C2592       C  0.54504079  0.97190831  0.34480875     0.83900
C2593       C  0.56511626  0.57958684  0.34468299     0.83600
O2594       O  0.59122904  0.52305325  0.27568836    -0.77600
C2595       C  0.67113008  0.63497245  0.32807665     0.84400
O2596       O  0.55113730  0.99561825  0.32843438    -0.77700
C2597       C  0.65636377  0.55899709  0.40641880     0.84500
C2598       C  0.68750409  0.52309483  0.34191126     0.84800
O2599       O  0.65680102  0.50062644  0.34629070    -0.80100
O2600       O  0.76565655  0.66780382  0.51380542    -0.77600
C2601       C  0.72343619  0.57398363  0.57117486     0.83400
O2602       O  0.76935027  0.57229841  0.47528292    -0.78700
O2603       O  0.64168962  0.52528935  0.50231831    -0.80200
O2604       O  0.68685193  0.63970602  0.48771836    -0.80000
O2605       O  0.75877393  0.66772834  0.46820967    -0.78600
Zn2606     Zn  0.75029314  0.61859554  0.52051992     1.55700
O2607       O  0.65736054  0.60705228  0.52327563    -0.80000
Cd2608     Cd  0.71472473  0.62333848  0.47205918     1.59700
Cd2609     Cd  0.71747378  0.55857012  0.47495306     1.59600
O2610       O  0.68868919  0.59969486  0.43849473    -0.80000
O2611       O  0.71389321  0.59133119  0.49843064    -1.90500
Cd2612     Cd  0.67477626  0.57058051  0.52306155     1.59900
O2613       O  0.69393635  0.55429948  0.43737037    -0.80000
O2614       O  0.69350016  0.55832185  0.56092477    -0.78600
C2615       C  0.79228406  0.59569677  0.49022629     0.83900
C2616       C  0.77211867  0.68324050  0.49055515     0.83600
O2617       O  0.74609499  0.60050154  0.55937394    -0.77600
C2618       C  0.66596968  0.63234443  0.50691225     0.84400
O2619       O  0.78619650  0.61331011  0.50662446    -0.77700
C2620       C  0.68096662  0.57130667  0.42857738     0.84500
C2621       C  0.64990739  0.50423573  0.49321291     0.84800
O2622       O  0.68061717  0.51255910  0.48882329    -0.80100
O2623       O  0.66119429  0.77229542  0.98808643    -0.77600
C2624       C  0.56738226  0.73005644  0.93072116     0.83400
O2625       O  0.56563626  0.77594370  0.02658368    -0.78700
O2626       O  0.51870739  0.64830138  0.99953516    -0.80200
O2627       O  0.63312262  0.69349776  0.01419694    -0.80000
O2628       O  0.66111550  0.76542554  0.03368305    -0.78600
Zn2629     Zn  0.61198502  0.75692592  0.98137279     1.55700
O2630       O  0.60048590  0.66399309  0.97863639    -0.80000
Cd2631     Cd  0.61674074  0.72137651  0.02982553     1.59700
Cd2632     Cd  0.55193300  0.72407610  0.02690446     1.59600
O2633       O  0.59310802  0.69537484  0.06339340    -0.80000
O2634       O  0.58472664  0.72051996  0.00345044    -1.90500
Cd2635     Cd  0.56400844  0.68140350  0.97882088     1.59900
O2636       O  0.54766322  0.70054269  0.06448627    -0.80000
O2637       O  0.55174402  0.70011588  0.94096096    -0.78600
C2638       C  0.58904804  0.79888696  0.01165653     0.83900
C2639       C  0.67662970  0.77875981  0.01133751     0.83600
O2640       O  0.59388927  0.75272703  0.94252458    -0.77600
C2641       C  0.62576856  0.67260486  0.99501291     0.84400
O2642       O  0.60668267  0.79281335  0.99527209    -0.77700
C2643       C  0.56470493  0.68761960  0.07329748     0.84500
C2644       C  0.99763455  0.65650630  0.00861584     0.84800
O2645       O  0.50594018  0.68721021  0.01300431    -0.80100
O2646       O  0.56419878  0.57829046  0.18043828    -0.77600
C2647       C  0.51266478  0.62050686  0.23794965     0.83400
O2648       O  0.96493662  0.57462473  0.14216308    -0.78700
O2649       O  0.54582460  0.70233229  0.16911178    -0.80200
O2650       O  0.61493820  0.65691475  0.15459960    -0.80000
O2651       O  0.57086183  0.58514902  0.13483208    -0.78600
Zn2652     Zn  0.53038735  0.59367288  0.18727871     1.55700
O2653       O  0.61180783  0.68651389  0.19008420    -0.80000
Cd2654     Cd  0.57067095  0.62922871  0.13885727     1.59700
Cd2655     Cd  0.50312849  0.62649511  0.14182184     1.59600
O2656       O  0.57314925  0.65544700  0.10541212    -0.80000
O2657       O  0.53949111  0.63006321  0.16523754    -1.90500
Cd2658     Cd  0.55792309  0.66919037  0.18983875     1.59900
O2659       O  0.52237141  0.64989934  0.10419600    -0.80000
O2660       O  0.52691758  0.65043103  0.22769138    -0.78600
C2661       C  0.96542497  0.55169443  0.15704672     0.83900
C2662       C  0.57309974  0.57182194  0.15714370     0.83600
O2663       O  0.51654506  0.59787430  0.22615254    -0.77600
C2664       C  0.62847392  0.67780710  0.17378725     0.84400
O2665       O  0.98914959  0.55779079  0.17340653    -0.77700
C2666       C  0.55242272  0.66302853  0.09545938     0.84500
C2667       C  0.51657808  0.69416770  0.15996010     0.84800
O2668       O  0.49410507  0.66346192  0.15560011    -0.80100
O2669       O  0.73837342  0.90411125  0.98809140    -0.77600
C2670       C  0.78062635  0.85261508  0.93063709     0.83400
O2671       O  0.73465143  0.80484873  0.02641850    -0.78700
O2672       O  0.86238745  0.88567957  0.99955579    -0.80200
O2673       O  0.81691984  0.95479814  0.01393721    -0.80000
O2674       O  0.74515515  0.91074315  0.03370268    -0.78600
Zn2675     Zn  0.75374501  0.87029303  0.98128701     1.55700
O2676       O  0.84663528  0.95167648  0.97854108    -0.80000
Cd2677     Cd  0.78923572  0.91055327  0.02970221     1.59700
Cd2678     Cd  0.78651899  0.84302911  0.02678179     1.59600
O2679       O  0.81546584  0.91308955  0.06314704    -0.80000
O2680       O  0.79011184  0.87937792  0.00334634    -1.90500
Cd2681     Cd  0.82927846  0.89779689  0.97879036     1.59900
O2682       O  0.80991868  0.86231410  0.06439316    -0.80000
O2683       O  0.81053777  0.86682636  0.94092007    -0.78600
C2684       C  0.71173653  0.80532561  0.01150410     0.83900
C2685       C  0.73186802  0.91299910  0.01137421     0.83600
O2686       O  0.75799335  0.85650588  0.94242055    -0.77600
C2687       C  0.83787368  0.96833562  0.99479100     0.84400
O2688       O  0.71784467  0.82904371  0.99513328    -0.77700
C2689       C  0.82306047  0.89237587  0.07310294     0.84500
C2690       C  0.85419932  0.85642798  0.00870480     0.84800
O2691       O  0.82348325  0.83397163  0.01305256    -0.80100
O2692       O  0.93242451  0.50112183  0.18043356    -0.77600
C2693       C  0.89014649  0.90728486  0.23779994     0.83400
O2694       O  0.93606488  0.90561110  0.14185272    -0.78700
O2695       O  0.80843047  0.85862309  0.16892938    -0.80200
O2696       O  0.85362623  0.97305887  0.15437340    -0.80000
O2697       O  0.92552661  0.50108721  0.13484287    -0.78600
Zn2698     Zn  0.91704707  0.95190349  0.18714069     1.55700
O2699       O  0.82409010  0.94036194  0.18989416    -0.80000
Cd2700     Cd  0.88149258  0.95669553  0.13869991     1.59700
Cd2701     Cd  0.88420285  0.89190097  0.14155572     1.59600
O2702       O  0.85543497  0.93307387  0.10515060    -0.80000
O2703       O  0.88064709  0.92466288  0.16505121    -1.90500
Cd2704     Cd  0.84152236  0.90390794  0.18967220     1.59900
O2705       O  0.86065812  0.88766438  0.10399759    -0.80000
O2706       O  0.86021460  0.89164094  0.22754299    -0.78600
C2707       C  0.95900137  0.92899237  0.15680486     0.83900
C2708       C  0.93886831  0.51658143  0.15719447     0.83600
O2709       O  0.91282727  0.93378829  0.22599571    -0.77600
C2710       C  0.83271741  0.96567171  0.17354854     0.84400
O2711       O  0.95292401  0.94659435  0.17322361    -0.77700
C2712       C  0.84768868  0.90468120  0.09523215     0.84500
C2713       C  0.81663708  0.83756420  0.15981787     0.84800
O2714       O  0.84734209  0.84588213  0.15541079    -0.80100
O2715       O  0.60648711  0.84936053  0.98816853    -0.77600
C2716       C  0.65814507  0.94322499  0.93074031     0.83400
O2717       O  0.70584996  0.94497018  0.02650249    -0.78700
O2718       O  0.62520546  0.99194678  0.99969358    -0.80200
O2719       O  0.55585934  0.87744038  0.01403265    -0.80000
O2720       O  0.59974683  0.84954068  0.03376904    -0.78600
Zn2721     Zn  0.64037348  0.89859178  0.98136050     1.55700
O2722       O  0.55912300  0.91028424  0.97862910    -0.80000
Cd2723     Cd  0.60008507  0.89388138  0.02977027     1.59700
Cd2724     Cd  0.66775512  0.95873586  0.02685236     1.59600
O2725       O  0.59767028  0.91765361  0.06321029    -0.80000
O2726       O  0.63134830  0.92591257  0.00343867    -1.90500
Cd2727     Cd  0.61302272  0.94670729  0.97890580     1.59900
O2728       O  0.64846090  0.96296421  0.06443276    -0.80000
O2729       O  0.64398105  0.95894469  0.94104776    -0.78600
C2730       C  0.70532713  0.92154221  0.01157457     0.83900
C2731       C  0.59755545  0.83397644  0.01144858     0.83600
O2732       O  0.65420085  0.91667230  0.94249520    -0.77600
C2733       C  0.54238612  0.88489871  0.99489535     0.84400
O2734       O  0.68159768  0.90391892  0.99519391    -0.77700
C2735       C  0.61839562  0.94602381  0.07313979     0.84500
C2736       C  0.65449982  0.51304933  0.00876460     0.84800
O2737       O  0.67693336  0.50478901  0.01306115    -0.80100
O2738       O  0.50947870  0.94639859  0.18027173    -0.77600
C2739       C  0.60330772  0.99804322  0.23769133     0.83400
O2740       O  0.60507298  0.54581712  0.14196818    -0.78700
O2741       O  0.65207233  0.96515784  0.16869950    -0.80200
O2742       O  0.53755010  0.89582755  0.15434952    -0.80000
O2743       O  0.00964951  0.93974293  0.13466156    -0.78600
Zn2744     Zn  0.55870180  0.98029762  0.18706626     1.55700
O2745       O  0.57041803  0.89907777  0.18973201    -0.80000
Cd2746     Cd  0.55398021  0.94006671  0.13863379     1.59700
Cd2747     Cd  0.61885378  0.00772462  0.14156022     1.59600
O2748       O  0.57769428  0.93765810  0.10516300    -0.80000
O2749       O  0.58603679  0.97130856  0.16496703    -1.90500
Cd2750     Cd  0.60683241  0.95297286  0.18948703     1.59900
O2751       O  0.62304371  0.98842233  0.10396298    -0.80000
O2752       O  0.61904841  0.98390590  0.22736992    -0.78600
C2753       C  0.58164085  0.54527718  0.15690677     0.83900
C2754       C  0.99408951  0.93750590  0.15699349     0.83600
O2755       O  0.57675137  0.99408861  0.22593725    -0.77600
C2756       C  0.54502491  0.88234702  0.17347146     0.84400
O2757       O  0.56401297  0.52152748  0.17326810    -0.77700
C2758       C  0.60607216  0.95836811  0.09523803     0.84500
C2759       C  0.67317953  0.99445291  0.15963689     0.84800
O2760       O  0.66491897  0.01688576  0.15533461    -0.80100
O2761       O  0.74351229  0.93122237  0.39269395    -0.77600
C2762       C  0.66075621  0.90523810  0.32387890     0.83400
O2763       O  0.77172663  0.90798704  0.30860958    -0.78700
O2764       O  0.74431231  0.98859669  0.27178292    -0.80200
O2765       O  0.73693078  0.51995086  0.35658793    -0.80000
O2766       O  0.78566541  0.98382840  0.39424774    -0.78600
Zn2767     Zn  0.72540755  0.92702502  0.35383478     1.55700
O2768       O  0.70432761  0.49051464  0.32098890    -0.80000
Cd2769     Cd  0.77340068  0.50253596  0.35638054     1.59700
Cd2770     Cd  0.78544476  0.95985570  0.30828385     1.59600
O2771       O  0.81869163  0.53563464  0.33564680    -0.80000
O2772       O  0.75266400  0.96342570  0.33174424    -1.90500
Cd2773     Cd  0.72066743  0.96260365  0.30535983     1.59900
O2774       O  0.83144781  0.49672347  0.32216338    -0.80000
O2775       O  0.67625985  0.91857597  0.30152962    -0.78600
C2776       C  0.74831599  0.88504550  0.32353844     0.83900
C2777       C  0.77001979  0.95389269  0.40449865     0.83600
O2778       O  0.67620304  0.91168676  0.34712449    -0.77600
C2779       C  0.71166862  0.51137526  0.34019675     0.84400
O2780       O  0.73068758  0.89112110  0.33992971    -0.77700
C2781       C  0.83975702  0.52742947  0.32654732     0.84500
C2782       C  0.77271412  0.99633282  0.26188443     0.84800
O2783       O  0.78973182  0.98338619  0.27069922    -0.80100
O2784       O  0.82094783  0.58606908  0.10902657    -0.77600
C2785       C  0.76447705  0.61219927  0.17803683     0.83400
O2786       O  0.87259778  0.60936567  0.19305025    -0.78700
O2787       O  0.76431777  0.52852027  0.22975036    -0.80200
O2788       O  0.72574352  0.99744614  0.14511466    -0.80000
O2789       O  0.81059897  0.53351878  0.10750488    -0.78600
Zn2790     Zn  0.80716193  0.59030511  0.14790431     1.55700
O2791       O  0.72262231  0.02713071  0.18053442    -0.80000
Cd2792     Cd  0.77962611  0.51477868  0.14536954     1.59700
Cd2793     Cd  0.83439710  0.55749060  0.19340442     1.59600
O2794       O  0.79173568  0.98164991  0.16610403    -0.80000
O2795       O  0.79805904  0.55392235  0.16995502    -1.90500
Cd2796     Cd  0.76687140  0.55477889  0.19631264     1.59900
O2797       O  0.84343970  0.02052766  0.17964491    -0.80000
O2798       O  0.76670576  0.59887027  0.20035019    -0.78600
C2799       C  0.87213324  0.63228399  0.17813045     0.83900
C2800       C  0.82482448  0.56343395  0.09723194     0.83600
O2801       O  0.77337848  0.60572343  0.15474589    -0.77600
C2802       C  0.70908395  0.00620009  0.16137325     0.84400
O2803       O  0.84842117  0.62617726  0.16175338    -0.77700
C2804       C  0.82098026  0.98982170  0.17526454     0.84500
C2805       C  0.78502898  0.52093332  0.23972748     0.84800
O2806       O  0.81509510  0.53407156  0.23102213    -0.80100
O2807       O  0.57946100  0.82748478  0.39281393    -0.77600
C2808       C  0.60554416  0.77096483  0.32379957     0.83400
O2809       O  0.60272069  0.87915086  0.30882924    -0.78700
O2810       O  0.52195491  0.77093697  0.27205192    -0.80200
O2811       O  0.99081594  0.73225996  0.35670222    -0.80000
O2812       O  0.52690421  0.81712014  0.39434447    -0.78600
Zn2813     Zn  0.58368305  0.81368475  0.35393030     1.55700
O2814       O  0.02043866  0.72913966  0.32123124    -0.80000
Cd2815     Cd  0.50815377  0.78614185  0.35647170     1.59700
Cd2816     Cd  0.55086398  0.84094154  0.30846453     1.59600
O2817       O  0.97500983  0.79823445  0.33573584    -0.80000
O2818       O  0.54729598  0.80458016  0.33188233    -1.90500
Cd2819     Cd  0.54814991  0.77340786  0.30550296     1.59900
O2820       O  0.01387636  0.84994733  0.32221336    -0.80000
O2821       O  0.59222139  0.77319584  0.30148307    -0.78600
C2822       C  0.62564947  0.87867032  0.32372122     0.83900
C2823       C  0.55682325  0.83135570  0.40461482     0.83600
O2824       O  0.59907909  0.77988438  0.34708648    -0.77600
C2825       C  0.99952812  0.71559852  0.34040633     0.84400
O2826       O  0.61955774  0.85494253  0.34007501    -0.77700
C2827       C  0.98317069  0.82747429  0.32657404     0.84500
C2828       C  0.51437650  0.79166150  0.26209258     0.84800
O2829       O  0.52749822  0.82171069  0.27082770    -0.80100
O2830       O  0.92468394  0.75014979  0.10915859    -0.77600
C2831       C  0.89869432  0.66739784  0.17796938     0.83400
O2832       O  0.90149757  0.77843237  0.19321549    -0.78700
O2833       O  0.98203222  0.75096420  0.23003887    -0.80200
O2834       O  0.51344291  0.74359223  0.14526199    -0.80000
O2835       O  0.97729491  0.79229854  0.10758345    -0.78600
Zn2836     Zn  0.92049054  0.73205598  0.14801080     1.55700
O2837       O  0.48398154  0.71099134  0.18085304    -0.80000
Cd2838     Cd  0.99602030  0.78005629  0.14544693     1.59700
Cd2839     Cd  0.95335395  0.79213101  0.19352006     1.59600
O2840       O  0.52912474  0.82536761  0.16615536    -0.80000
O2841       O  0.95690400  0.75932461  0.17008013    -1.90500
Cd2842     Cd  0.95605658  0.72732243  0.19646644     1.59900
O2843       O  0.49020594  0.83812251  0.17961781    -0.80000
O2844       O  0.91203517  0.68290792  0.20031500    -0.78600
C2845       C  0.87854490  0.75501015  0.17830534     0.83900
C2846       C  0.94735277  0.77665240  0.09734660     0.83600
O2847       O  0.90513514  0.68284438  0.15472424    -0.77600
C2848       C  0.50485759  0.71833268  0.16165739     0.84400
O2849       O  0.88460434  0.73736166  0.16192344    -0.77700
C2850       C  0.52091340  0.84643550  0.17523589     0.84500
C2851       C  0.98979410  0.77937383  0.23992739     0.84800
O2852       O  0.97688422  0.79641998  0.23109946    -0.80100
O2853       O  0.68319477  0.76725745  0.39268313    -0.77600
C2854       C  0.73980695  0.84995612  0.32373660     0.83400
O2855       O  0.63157140  0.73901072  0.30861441    -0.78700
O2856       O  0.73979980  0.76637116  0.27193104    -0.80200
O2857       O  0.77826452  0.77362474  0.35650320    -0.80000
O2858       O  0.69341361  0.72498622  0.39412772    -0.78600
Zn2859     Zn  0.69701628  0.78532575  0.35381100     1.55700
O2860       O  0.78151537  0.80652132  0.32114554    -0.80000
Cd2861     Cd  0.72435800  0.73721028  0.35624719     1.59700
Cd2862     Cd  0.66966325  0.72522166  0.30824985     1.59600
O2863       O  0.71216604  0.69197087  0.33545488    -0.80000
O2864       O  0.70603838  0.75801041  0.33171119    -1.90500
Cd2865     Cd  0.73730119  0.79007414  0.30539049     1.59900
O2866       O  0.66046437  0.67914542  0.32201577    -0.80000
O2867       O  0.73761371  0.83440165  0.30141037    -0.78600
C2868       C  0.63207974  0.76240810  0.32357947     0.83900
C2869       C  0.67925730  0.74071104  0.40444396     0.83600
O2870       O  0.73088572  0.83456389  0.34701317    -0.77600
C2871       C  0.79499546  0.79903440  0.34025767     0.84400
O2872       O  0.65579534  0.77999562  0.33998177    -0.77700
C2873       C  0.68288579  0.67087722  0.32635100     0.84500
C2874       C  0.71910039  0.73800350  0.26198415     0.84800
O2875       O  0.68902783  0.72104173  0.27067562    -0.80100
O2876       O  0.76074408  0.68985375  0.10920817    -0.77600
C2877       C  0.84346003  0.74650998  0.17811727     0.83400
O2878       O  0.73250770  0.63821335  0.19320364    -0.78700
O2879       O  0.75983208  0.74640668  0.22996000    -0.80200
O2880       O  0.76713278  0.78490685  0.14534485    -0.80000
O2881       O  0.71845050  0.70004192  0.10778506    -0.78600
Zn2882     Zn  0.77883943  0.70369343  0.14806726     1.55700
O2883       O  0.80000117  0.78819666  0.18074046    -0.80000
Cd2884     Cd  0.73070989  0.73101407  0.14564020     1.59700
Cd2885     Cd  0.71871763  0.67630120  0.19358994     1.59600
O2886       O  0.68548396  0.71884540  0.16644331    -0.80000
O2887       O  0.75152268  0.71270592  0.17016936    -1.90500
Cd2888     Cd  0.78357088  0.74397729  0.19649304     1.59900
O2889       O  0.67264349  0.66712305  0.17981921    -0.80000
O2890       O  0.82790998  0.74430436  0.20045019    -0.78600
C2891       C  0.75593474  0.63874429  0.17826381     0.83900
C2892       C  0.73417607  0.68588902  0.09746692     0.83600
O2893       O  0.82806420  0.73759805  0.15484260    -0.77600
C2894       C  0.79252947  0.80165438  0.16159848     0.84400
O2895       O  0.77355019  0.66248063  0.16188771    -0.77700
C2896       C  0.66438008  0.68955380  0.17551583     0.84500
C2897       C  0.73145949  0.72568044  0.23988987     0.84800
O2898       O  0.71451832  0.69561755  0.23117732    -0.80100
O2899       O  0.65424565  0.75277814  0.44244912    -0.77600
C2900       C  0.59770641  0.77885667  0.51143768     0.83400
O2901       O  0.70592169  0.77605711  0.52642051    -0.78700
O2902       O  0.59774589  0.69535129  0.56329090    -0.80200
O2903       O  0.55902949  0.66417469  0.47857653    -0.80000
O2904       O  0.64384944  0.70021547  0.44091853    -0.78600
Zn2905     Zn  0.64044211  0.75700299  0.48133566     1.55700
O2906       O  0.55589588  0.69373479  0.51409280    -0.80000
Cd2907     Cd  0.61290044  0.68149680  0.47880327     1.59700
Cd2908     Cd  0.66771735  0.72418802  0.52679262     1.59600
O2909       O  0.62499708  0.64834802  0.49951304    -0.80000
O2910       O  0.63134105  0.72062867  0.50340183    -1.90500
Cd2911     Cd  0.60017899  0.72148960  0.52980137     1.59900
O2912       O  0.67672963  0.68721778  0.51299221    -0.80000
O2913       O  0.59994131  0.76555406  0.53376470    -0.78600
C2914       C  0.70543184  0.79898277  0.51152991     0.83900
C2915       C  0.65809201  0.73012971  0.43064266     0.83600
O2916       O  0.60662772  0.77237935  0.48815750    -0.77600
C2917       C  0.54236231  0.67285503  0.49489461     0.84400
O2918       O  0.68169417  0.79288673  0.49518516    -0.77700
C2919       C  0.65425337  0.65651166  0.50863684     0.84500
C2920       C  0.61845006  0.68771701  0.57320743     0.84800
O2921       O  0.64847721  0.70077812  0.56442267    -0.80100
O2922       O  0.57694310  0.59796010  0.72613244    -0.77600
C2923       C  0.99422927  0.57188259  0.65727403     0.83400
O2924       O  0.60520998  0.57474306  0.64203041    -0.78700
O2925       O  0.57778351  0.65540562  0.60530579    -0.80200
O2926       O  0.57037272  0.68670392  0.69002044    -0.80000
O2927       O  0.61909670  0.65056935  0.72770382    -0.78600
Zn2928     Zn  0.55886994  0.59374824  0.68727688     1.55700
O2929       O  0.53769275  0.65714277  0.65450016    -0.80000
Cd2930     Cd  0.60685275  0.66928833  0.68983536     1.59700
Cd2931     Cd  0.61890320  0.62660586  0.64172105     1.59600
O2932       O  0.65215538  0.70237765  0.66910529    -0.80000
O2933       O  0.58613059  0.63016535  0.66520861    -1.90500
Cd2934     Cd  0.55411951  0.62932011  0.63884130     1.59900
O2935       O  0.66490285  0.66346814  0.65559126    -0.80000
O2936       O  0.00975897  0.58525337  0.63494150    -0.78600
C2937       C  0.58182193  0.55180319  0.65697630     0.83900
C2938       C  0.60344431  0.62062884  0.73794411     0.83600
O2939       O  0.50964901  0.57832963  0.68053275    -0.77600
C2940       C  0.54506253  0.67805819  0.67366714     0.84400
O2941       O  0.56420811  0.55788022  0.67338157    -0.77700
C2942       C  0.67321364  0.69417117  0.65998770     0.84500
C2943       C  0.60616308  0.66312203  0.59536979     0.84800
O2944       O  0.62316684  0.65013906  0.60413926    -0.80100
O2945       O  0.59398443  0.85648377  0.44255111    -0.77600
C2946       C  0.67673626  0.91312218  0.51147354     0.83400
O2947       O  0.56573686  0.80487676  0.52658228    -0.78700
O2948       O  0.59313712  0.91306328  0.56331644    -0.80200
O2949       O  0.60040927  0.95158653  0.47871381    -0.80000
O2950       O  0.55172463  0.86672245  0.44111260    -0.78600
Zn2951     Zn  0.61208960  0.87032899  0.48141112     1.55700
O2952       O  0.63327836  0.95484906  0.51410021    -0.80000
Cd2953     Cd  0.56398853  0.89769158  0.47897951     1.59700
Cd2954     Cd  0.55197552  0.84297925  0.52694474     1.59600
O2955       O  0.51876411  0.88553345  0.49977619    -0.80000
O2956       O  0.58478956  0.87936910  0.50351236    -1.90500
Cd2957     Cd  0.61685078  0.91062375  0.52983866     1.59900
O2958       O  0.50591508  0.83381373  0.51316884    -0.80000
O2959       O  0.66118759  0.91094311  0.53380045    -0.78600
C2960       C  0.58915136  0.80539052  0.51163874     0.83900
C2961       C  0.56743159  0.85254524  0.43080002     0.83600
O2962       O  0.66133709  0.90419135  0.48819932    -0.77600
C2963       C  0.62580334  0.96832241  0.49497299     0.84400
O2964       O  0.60675855  0.82911036  0.49524707    -0.77700
C2965       C  0.99765765  0.85624561  0.50885252     0.84500
C2966       C  0.56476430  0.89235318  0.57325459     0.84800
O2967       O  0.54779400  0.86229753  0.56453482    -0.80100
O2968       O  0.51656536  0.93396007  0.72606603    -0.77600
C2969       C  0.57329994  0.51670863  0.65716334     0.83400
O2970       O  0.96498256  0.90565820  0.64205275    -0.78700
O2971       O  0.57314715  0.93307800  0.60527598    -0.80200
O2972       O  0.61170494  0.94039657  0.68994004    -0.80000
O2973       O  0.52682913  0.89172069  0.72753592    -0.78600
Zn2974     Zn  0.53043927  0.95205822  0.68720401     1.55700
O2975       O  0.61497277  0.97317088  0.65447743    -0.80000
Cd2976     Cd  0.55780829  0.90397333  0.68967672     1.59700
Cd2977     Cd  0.50309801  0.89192104  0.64170350     1.59600
O2978       O  0.54565357  0.85873488  0.66890473    -0.80000
O2979       O  0.53949392  0.92475831  0.66511594    -1.90500
Cd2980     Cd  0.57074706  0.95679564  0.63876780     1.59900
O2981       O  0.49393206  0.84587939  0.65550817    -0.80000
O2982       O  0.57113840  0.50117200  0.63483340    -0.78600
C2983       C  0.96549629  0.92908695  0.65697334     0.83900
C2984       C  0.51263547  0.90741852  0.73783153     0.83600
O2985       O  0.56432559  0.50129570  0.68042893    -0.77600
C2986       C  0.62844436  0.96573966  0.67363401     0.84400
O2987       O  0.98922441  0.94672456  0.67335013    -0.77700
C2988       C  0.51636670  0.83762643  0.65982483     0.84500
C2989       C  0.55244389  0.90468674  0.59536827     0.84800
O2990       O  0.52240186  0.88770106  0.60412018    -0.80100
O2991       O  0.75798126  0.91678928  0.44247880    -0.77600
C2992       C  0.73200686  0.83408784  0.51134923     0.83400
O2993       O  0.73476270  0.94500657  0.52663191    -0.78700
O2994       O  0.81551926  0.91762356  0.56330036    -0.80200
O2995       O  0.84676493  0.91029747  0.47855411    -0.80000
O2996       O  0.81056828  0.95898666  0.44092143    -0.78600
Zn2997     Zn  0.75380132  0.89872380  0.48134964     1.55700
O2998       O  0.81723742  0.87759894  0.51407604    -0.80000
Cd2999     Cd  0.82932228  0.94675663  0.47878228     1.59700
Cd3000     Cd  0.78663708  0.95872928  0.52695150     1.59600
O3001       O  0.86240612  0.99205871  0.49952538    -0.80000
O3002       O  0.79021545  0.92599893  0.50342424    -1.90500
Cd3003     Cd  0.78941309  0.89398625  0.52977276     1.59900
O3004       O  0.82349826  0.50476799  0.51313039    -0.80000
O3005       O  0.74537495  0.84960978  0.53368436    -0.78600
C3006       C  0.71182895  0.92163164  0.51167107     0.83900
C3007       C  0.78063273  0.94330917  0.43067183     0.83600
O3008       O  0.73843843  0.84951581  0.48809526    -0.77600
C3009       C  0.83813843  0.88498343  0.49489716     0.84400
O3010       O  0.71791280  0.90403183  0.49525433    -0.77700
C3011       C  0.85420093  0.51309814  0.50869392     0.84500
C3012       C  0.82320214  0.94597958  0.57325974     0.84800
O3013       O  0.81017404  0.96295730  0.56452429    -0.80100
O3014       O  0.91281715  0.99409815  0.72615056    -0.77600
C3015       C  0.93894346  0.93761208  0.65717530     0.83400
O3016       O  0.93621242  0.54578840  0.64215985    -0.78700
O3017       O  0.85538376  0.93755169  0.60537572    -0.80200
O3018       O  0.82419922  0.89897300  0.69002032    -0.80000
O3019       O  0.86028604  0.98381755  0.72762126    -0.78600
Zn3020     Zn  0.91707594  0.98032139  0.68727366     1.55700
O3021       O  0.85387948  0.89582475  0.65460726    -0.80000
Cd3022     Cd  0.84155314  0.95284899  0.68975313     1.59700
Cd3023     Cd  0.88432930  0.00761268  0.64176141     1.59600
O3024       O  0.80844756  0.96497030  0.66898733    -0.80000
O3025       O  0.88071965  0.97125509  0.66519669    -1.90500
Cd3026     Cd  0.88157964  0.94006646  0.63884044     1.59900
O3027       O  0.84735356  0.01667368  0.65548156    -0.80000
O3028       O  0.92565619  0.93986797  0.63484711    -0.78600
C3029       C  0.95911996  0.54530643  0.65708379     0.83900
C3030       C  0.89018822  0.99800829  0.73792025     0.83600
O3031       O  0.93243303  0.94649208  0.68045989    -0.77600
C3032       C  0.83294325  0.88230241  0.67376750     0.84400
O3033       O  0.95300008  0.52157872  0.67344844    -0.77700
C3034       C  0.81663645  0.99422148  0.65983641     0.84500
C3035       C  0.84780724  0.95827574  0.59541108     0.84800
O3036       O  0.86094303  0.98833246  0.60413372    -0.80100
O3037       O  0.91022764  0.76458801  0.05938688    -0.77600
C3038       C  0.82748664  0.73855158  0.99055605     0.83400
O3039       O  0.93840796  0.74133583  0.97524027    -0.78700
O3040       O  0.91097997  0.82207508  0.93861959    -0.80200
O3041       O  0.90369285  0.85334898  0.02331057    -0.80000
O3042       O  0.95241488  0.81718330  0.06092663    -0.78600
Zn3043     Zn  0.89213309  0.76036983  0.02053241     1.55700
O3044       O  0.87093160  0.82374549  0.98784363    -0.80000
Cd3045     Cd  0.94015018  0.83590842  0.02307290     1.59700
Cd3046     Cd  0.95210969  0.79319770  0.97492886     1.59600
O3047       O  0.98542612  0.86898976  0.00230276    -0.80000
O3048       O  0.91938621  0.79677819  0.99845967    -1.90500
Cd3049     Cd  0.88734994  0.79595205  0.97213362     1.59900
O3050       O  0.99815214  0.83008757  0.98872067    -0.80000
O3051       O  0.84300082  0.75190165  0.96821476    -0.78600
C3052       C  0.91503811  0.71840054  0.99020195     0.83900
C3053       C  0.93675010  0.78724957  0.07118062     0.83600
O3054       O  0.84292211  0.74500253  0.01380719    -0.77600
C3055       C  0.87834519  0.84468225  0.00699770     0.84400
O3056       O  0.89744092  0.72448037  0.00662558    -0.77700
C3057       C  0.50647202  0.86078956  0.99314250     0.84500
C3058       C  0.93932889  0.82974613  0.92864893     0.84800
O3059       O  0.95629757  0.81669930  0.93735977    -0.80100
O3060       O  0.98754867  0.91944337  0.77580285    -0.77600
C3061       C  0.93096972  0.94548891  0.84475822     0.83400
O3062       O  0.53916108  0.94274304  0.85981923    -0.78700
O3063       O  0.93091727  0.86195648  0.89655914    -0.80200
O3064       O  0.89234388  0.83077903  0.81190763    -0.80000
O3065       O  0.97721476  0.86689873  0.77429133    -0.78600
Zn3066     Zn  0.97372404  0.92365876  0.81467892     1.55700
O3067       O  0.88919985  0.86043446  0.84734125    -0.80000
Cd3068     Cd  0.94622825  0.84814320  0.81215932     1.59700
Cd3069     Cd  0.00097860  0.89087265  0.86018001     1.59600
O3070       O  0.95833176  0.81501714  0.83291019    -0.80000
O3071       O  0.96463422  0.88728736  0.83673886    -1.90500
Cd3072     Cd  0.93344293  0.88814725  0.86309658     1.59900
O3073       O  0.01002865  0.85389265  0.84646061    -0.80000
O3074       O  0.93322217  0.93220617  0.86708889    -0.78600
C3075       C  0.53868222  0.96566365  0.84491467     0.83900
C3076       C  0.99143771  0.89681272  0.76401281     0.83600
O3077       O  0.93987665  0.93899519  0.82147888    -0.77600
C3078       C  0.87567252  0.83950385  0.82817899     0.84400
O3079       O  0.51496205  0.95956200  0.82854615    -0.77700
C3080       C  0.98756999  0.82318476  0.84208308     0.84500
C3081       C  0.95163020  0.85436030  0.90651313     0.84800
O3082       O  0.98168640  0.86748298  0.89779209    -0.80100
O3083       O  0.84994768  0.60059189  0.05930538    -0.77600
C3084       C  0.90653269  0.68331158  0.99039095     0.83400
O3085       O  0.79824324  0.57230013  0.97535414    -0.78700
O3086       O  0.90635686  0.59966726  0.93852944    -0.80200
O3087       O  0.94499936  0.60700510  0.02311556    -0.80000
O3088       O  0.86016959  0.55832112  0.06073046    -0.78600
Zn3089     Zn  0.86375893  0.61868416  0.02045152     1.55700
O3090       O  0.94824299  0.63984408  0.98771217    -0.80000
Cd3091     Cd  0.89111369  0.57057692  0.02286033     1.59700
Cd3092     Cd  0.83633636  0.55853169  0.97497069     1.59600
O3093       O  0.87894220  0.52534975  0.00206870    -0.80000
O3094       O  0.87276820  0.59137120  0.99834937    -1.90500
Cd3095     Cd  0.90399298  0.62341675  0.97200567     1.59900
O3096       O  0.82718481  0.51249440  0.98878383    -0.80000
O3097       O  0.90431609  0.66775706  0.96805892    -0.78600
C3098       C  0.79878615  0.59573891  0.99028101     0.83900
C3099       C  0.84600614  0.57403556  0.07104933     0.83600
O3100       O  0.89763508  0.66791831  0.01366771    -0.77600
C3101       C  0.96172578  0.63238789  0.00684599     0.84400
O3102       O  0.82253262  0.61336783  0.00664487    -0.77700
C3103       C  0.84962566  0.50423627  0.99305084     0.84500
C3104       C  0.88564390  0.57127685  0.92862513     0.84800
O3105       O  0.85559980  0.55430116  0.93737413    -0.80100
O3106       O  0.92731851  0.52311604  0.77587328    -0.77600
C3107       C  0.51002715  0.57978441  0.84481021     0.83400
O3108       O  0.89898162  0.97149535  0.85986754    -0.78700
O3109       O  0.92636505  0.57963273  0.89661995    -0.80200
O3110       O  0.93373056  0.61823690  0.81201682    -0.80000
O3111       O  0.88508054  0.53338570  0.77439257    -0.78600
Zn3112     Zn  0.94539873  0.53696725  0.81473369     1.55700
O3113       O  0.96653145  0.62148467  0.84745179    -0.80000
Cd3114     Cd  0.89730892  0.56433792  0.81225756     1.59700
Cd3115     Cd  0.88522621  0.50959431  0.86020119     1.59600
O3116       O  0.85205229  0.55215252  0.83301125    -0.80000
O3117       O  0.91808028  0.54600274  0.83680690    -1.90500
Cd3118     Cd  0.95011321  0.57724280  0.86315517     1.59900
O3119       O  0.83919572  0.50041609  0.84635787    -0.80000
O3120       O  0.49446554  0.57759658  0.86713135    -0.78600
C3121       C  0.92242189  0.97202292  0.84495283     0.83900
C3122       C  0.90078322  0.51919461  0.76410202     0.83600
O3123       O  0.99463764  0.57084093  0.82153298    -0.77600
C3124       C  0.95908952  0.63496826  0.82831095     0.84400
O3125       O  0.94005791  0.99575382  0.82858030    -0.77700
C3126       C  0.83093960  0.52285041  0.84205709     0.84500
C3127       C  0.89796566  0.55893617  0.90652153     0.84800
O3128       O  0.88097739  0.52889427  0.89777597    -0.80100
O3129       O  0.74620842  0.66083568  0.05948073    -0.77600
C3130       C  0.77225344  0.60429277  0.99049663     0.83400
O3131       O  0.76945360  0.71247484  0.97550261    -0.78700
O3132       O  0.68871448  0.60429585  0.93870799    -0.80200
O3133       O  0.65754072  0.56560887  0.02335771    -0.80000
O3134       O  0.69364651  0.65045289  0.06102546    -0.78600
Zn3135     Zn  0.75040857  0.64701622  0.02060450     1.55700
O3136       O  0.68716757  0.56250220  0.98788302    -0.80000
Cd3137     Cd  0.67488962  0.61949218  0.02315146     1.59700
Cd3138     Cd  0.71758334  0.67429228  0.97516070     1.59600
O3139       O  0.64175704  0.63162361  0.00244613    -0.80000
O3140       O  0.71402475  0.63792798  0.99856052    -1.90500
Cd3141     Cd  0.71489425  0.60677322  0.97216966     1.59900
O3142       O  0.68064189  0.68334478  0.98895998    -0.80000
O3143       O  0.75895910  0.60655243  0.96817412    -0.78600
C3144       C  0.79238252  0.71198322  0.99038710     0.83900
C3145       C  0.72356946  0.66469744  0.07128707     0.83600
O3146       O  0.76576993  0.61319219  0.01378357    -0.77600
C3147       C  0.66625119  0.54895367  0.00705280     0.84400
O3148       O  0.78628988  0.68825342  0.00673850    -0.77700
C3149       C  0.64993159  0.66087870  0.99331321     0.84500
C3150       C  0.68106475  0.62498746  0.92879176     0.84800
O3151       O  0.69413735  0.65502203  0.93755350    -0.80100
O3152       O  0.59136522  0.58349910  0.77589745    -0.77600
C3153       C  0.56525912  0.00076672  0.84474287     0.83400
O3154       O  0.56804998  0.61169844  0.85997455    -0.78700
O3155       O  0.64875880  0.58430888  0.89670854    -0.80200
O3156       O  0.68005214  0.57692693  0.81200462    -0.80000
O3157       O  0.64395956  0.62568944  0.77437779    -0.78600
Zn3158     Zn  0.58712120  0.56540085  0.81474923     1.55700
O3159       O  0.65047712  0.54419799  0.84749768    -0.80000
Cd3160     Cd  0.66265024  0.61340760  0.81223716     1.59700
Cd3161     Cd  0.61992186  0.62541386  0.86031742     1.59600
O3162       O  0.69573255  0.65868117  0.83299867    -0.80000
O3163       O  0.62350987  0.59265807  0.83683829    -1.90500
Cd3164     Cd  0.62266932  0.56063558  0.86318509     1.59900
O3165       O  0.65680722  0.67142664  0.84646928    -0.80000
O3166       O  0.57859718  0.01629016  0.86708516    -0.78600
C3167       C  0.54512369  0.58830883  0.84501991     0.83900
C3168       C  0.61403243  0.61002635  0.76411308     0.83600
O3169       O  0.57173641  0.51619066  0.82148542    -0.77600
C3170       C  0.67139246  0.55158920  0.82832540     0.84400
O3171       O  0.55121891  0.57070206  0.82862137    -0.77700
C3172       C  0.68751724  0.67974141  0.84209083     0.84500
C3173       C  0.65644833  0.61267640  0.90665073     0.84800
O3174       O  0.64342765  0.62965519  0.89790256    -0.80100
O3175       O  0.77325445  0.68275089  0.65489877    -0.77600
C3176       C  0.82486743  0.77661739  0.59749874     0.83400
O3177       O  0.87257958  0.77836757  0.69329115    -0.78700
O3178       O  0.79189840  0.82529202  0.66647071    -0.80200
O3179       O  0.72260792  0.71082504  0.68086883    -0.80000
O3180       O  0.76647957  0.68285930  0.70049963    -0.78600
Zn3181     Zn  0.80712243  0.73199265  0.64812864     1.55700
O3182       O  0.72585243  0.74364812  0.64545275    -0.80000
Cd3183     Cd  0.76684215  0.72721879  0.69657840     1.59700
Cd3184     Cd  0.83446753  0.79211392  0.69365444     1.59600
O3185       O  0.76441121  0.75090700  0.73007207    -0.80000
O3186       O  0.79807729  0.75928089  0.67023650    -1.90500
Cd3187     Cd  0.77974270  0.78006268  0.64569590     1.59900
O3188       O  0.81513274  0.79631829  0.73122916    -0.80000
O3189       O  0.81068027  0.79231362  0.60781088    -0.78600
C3190       C  0.87206689  0.75495542  0.67834656     0.83900
C3191       C  0.76429906  0.66733025  0.67816127     0.83600
O3192       O  0.82096188  0.75008623  0.60926481    -0.77600
C3193       C  0.70912457  0.71828077  0.66173673     0.84400
O3194       O  0.84834137  0.73733676  0.66196312    -0.77700
C3195       C  0.78508836  0.77931016  0.73997337     0.84500
C3196       C  0.82119510  0.84640582  0.67552500     0.84800
O3197       O  0.84363094  0.83815323  0.67983983    -0.80100
O3198       O  0.67609272  0.77976434  0.84709065    -0.77600
C3199       C  0.77001657  0.83142559  0.90445872     0.83400
O3200       O  0.77168975  0.87908307  0.80869635    -0.78700
O3201       O  0.81866501  0.79844045  0.83548855    -0.80200
O3202       O  0.70416108  0.72912014  0.82118611    -0.80000
O3203       O  0.67623991  0.77300964  0.80148891    -0.75000
Zn3204     Zn  0.72533749  0.81363560  0.85386478     1.55700
O3205       O  0.73702252  0.73238793  0.85657995    -0.80000
Cd3206     Cd  0.72058846  0.77334269  0.80544137     1.59700
Cd3207     Cd  0.78545745  0.84099494  0.80835800     1.59600
O3208       O  0.74434416  0.77092035  0.77198038    -0.80000
O3209       O  0.75263474  0.80459528  0.83177081    -1.90500
Cd3210     Cd  0.77344536  0.78627725  0.85629409     1.59900
O3211       O  0.78968437  0.82169127  0.77078417    -0.80000
O3212       O  0.78572128  0.81724626  0.89414987    -0.78600
C3213       C  0.74826689  0.87856388  0.82362929     0.83900
C3214       C  0.66069209  0.77083103  0.82381777     0.83600
O3215       O  0.74346199  0.82748753  0.89271146    -0.77600
C3216       C  0.71162821  0.71565102  0.84032202     0.84400
O3217       O  0.73065674  0.85484626  0.84002186    -0.77700
C3218       C  0.77273095  0.79163542  0.76206436     0.84500
C3219       C  0.83976994  0.82774470  0.82644280     0.84800
O3220       O  0.83150612  0.85017737  0.82216017    -0.80100
O3221       O  0.73081183  0.91159941  0.84709189    -0.77600
C3222       C  0.67932480  0.95382050  0.90455588     0.83400
O3223       O  0.63152272  0.90789477  0.80878338    -0.78700
O3224       O  0.71238317  0.53560595  0.83570422    -0.80200
O3225       O  0.78149398  0.49016773  0.82116567    -0.80000
O3226       O  0.73744604  0.91836012  0.80148009    -0.78600
Zn3227     Zn  0.69698743  0.92696154  0.85388381     1.55700
O3228       O  0.77838164  0.51982275  0.85661604    -0.80000
Cd3229     Cd  0.73722689  0.96242629  0.80544162     1.59700
Cd3230     Cd  0.66971446  0.95977379  0.80841633     1.59600
O3231       O  0.73973066  0.98857022  0.77194963    -0.80000
O3232       O  0.70607233  0.96332969  0.83182032    -1.90500
Cd3233     Cd  0.72450596  0.50247148  0.85640359     1.59900
O3234       O  0.68903184  0.98322211  0.77081117    -0.80000
O3235       O  0.69355822  0.98373556  0.89428282    -0.78600
C3236       C  0.63200793  0.88497398  0.82368542     0.83900
C3237       C  0.73970896  0.90509138  0.82381520     0.83600
O3238       O  0.68318738  0.93118016  0.89275688    -0.77600
C3239       C  0.79503829  0.51109955  0.84032660     0.84400
O3240       O  0.65574191  0.89107400  0.84003575    -0.77700
C3241       C  0.71906194  0.99625190  0.76203709     0.84500
C3242       C  0.68312136  0.52743084  0.82658820     0.84800
O3243       O  0.66066026  0.49672224  0.82221809    -0.80100
O3244       O  0.82788932  0.60567386  0.65473829    -0.77600
C3245       C  0.73404589  0.56338856  0.59734198     0.83400
O3246       O  0.73239005  0.60929931  0.69328995    -0.78700
O3247       O  0.68540519  0.98165294  0.66622293    -0.80200
O3248       O  0.79987279  0.02687502  0.68071882    -0.80000
O3249       O  0.82779023  0.59873378  0.70032935    -0.78600
Zn3250     Zn  0.77867013  0.59027065  0.64799551     1.55700
O3251       O  0.76715550  0.99731823  0.64521512    -0.80000
Cd3252     Cd  0.78343495  0.55466565  0.69641968     1.59700
Cd3253     Cd  0.71868799  0.55743924  0.69359240     1.59600
O3254       O  0.75974259  0.52852274  0.72993105    -0.80000
O3255       O  0.75142519  0.55385885  0.67007301    -1.90500
Cd3256     Cd  0.73067679  0.51473718  0.64544889     1.59900
O3257       O  0.71444712  0.53393601  0.73117226    -0.80000
O3258       O  0.71839522  0.53345263  0.60759294    -0.78600
C3259       C  0.75576625  0.63223386  0.67833344     0.83900
C3260       C  0.84331316  0.61211341  0.67799556     0.83600
O3261       O  0.76056295  0.58605588  0.60913967    -0.77600
C3262       C  0.79248585  0.00596537  0.66154512     0.84400
O3263       O  0.77335671  0.62614930  0.66190710    -0.77700
C3264       C  0.73139196  0.52086825  0.73989444     0.84500
C3265       C  0.66435551  0.98985207  0.67537647     0.84800
O3266       O  0.67266564  0.52055450  0.67977933    -0.80100
O3267       O  0.59898714  0.83446180  0.84714459    -0.77600
C3268       C  0.55676660  0.74065267  0.90456231     0.83400
O3269       O  0.60266057  0.73892935  0.80868068    -0.78700
O3270       O  0.97499569  0.69193238  0.83571832    -0.80200
O3271       O  0.02020065  0.80640497  0.82118780    -0.80000
O3272       O  0.59205779  0.83433226  0.80155290    -0.78600
Zn3273     Zn  0.58362132  0.78525559  0.85390623     1.55700
O3274       O  0.99066477  0.77370481  0.85670570    -0.80000
Cd3275     Cd  0.54800546  0.78997968  0.80549862     1.59700
Cd3276     Cd  0.55079584  0.72522871  0.80834726     1.59600
O3277       O  0.52190900  0.76629836  0.77198739    -0.80000
O3278       O  0.54720630  0.75797565  0.83184402    -1.90500
Cd3279     Cd  0.50808421  0.73722663  0.85646880     1.59900
O3280       O  0.52731747  0.72100009  0.77075259    -0.80000
O3281       O  0.52683085  0.72497595  0.89431387    -0.78600
C3282       C  0.62559970  0.76232392  0.82362179     0.83900
C3283       C  0.60542712  0.84987147  0.82388132     0.83600
O3284       O  0.57941652  0.76718374  0.89276861    -0.77600
C3285       C  0.99930159  0.79902614  0.84036889     0.84400
O3286       O  0.61952069  0.77994578  0.84001818    -0.77700
C3287       C  0.51426901  0.73795813  0.76201744     0.84500
C3288       C  0.98320061  0.67088391  0.82657210     0.84800
O3289       O  0.01390538  0.67920254  0.82216321    -0.80100
O3290       O  0.90510210  0.73753390  0.65483695    -0.77600
C3291       C  0.94727250  0.68600798  0.59731636     0.83400
O3292       O  0.90134047  0.63819606  0.69307510    -0.78700
O3293       O  0.52907948  0.71903768  0.66619962    -0.80200
O3294       O  0.48369615  0.78818692  0.68071946    -0.80000
O3295       O  0.91189856  0.74414658  0.70044772    -0.78600
Zn3296     Zn  0.92043691  0.70369060  0.64800067     1.55700
O3297       O  0.51332425  0.78506027  0.64525490    -0.80000
Cd3298     Cd  0.95595563  0.74392221  0.69643352     1.59700
Cd3299     Cd  0.95321764  0.67637759  0.69346165     1.59600
O3300       O  0.98209727  0.74638211  0.72990400    -0.80000
O3301       O  0.95681213  0.71275132  0.67005225    -1.90500
Cd3302     Cd  0.49595930  0.73117423  0.64547243     1.59900
O3303       O  0.97660126  0.69562681  0.73109489    -0.80000
O3304       O  0.97718724  0.70021353  0.60759455    -0.78600
C3305       C  0.87841931  0.63869354  0.67818235     0.83900
C3306       C  0.89860967  0.74641759  0.67812761     0.83600
O3307       O  0.92464829  0.68990384  0.60911152    -0.77600
C3308       C  0.50461689  0.80172485  0.66155139     0.84400
O3309       O  0.88452357  0.66243597  0.66183959    -0.77700
C3310       C  0.98969243  0.72566525  0.73985033     0.84500
C3311       C  0.52090174  0.68979098  0.67535604     0.84800
O3312       O  0.49018919  0.66733156  0.67971427    -0.80100
loop_ 
_geom_bond_atom_site_label_1 
_geom_bond_atom_site_label_2 
_geom_bond_distance 
_geom_bond_site_symmetry_2 
_ccdc_geom_bond_type 
O1           C17   1.284       .  A
O1           Zn7   2.035       .  S
C2           O18   1.277       .  A
C2           O15   1.293       .  A
C2          C807   1.522       .  S
O3           C16   1.288       .  A
O3          Cd10   2.144       .  S
O4         C1678   1.282       .  A
O4          Cd13   2.120       .  S
O5           C19   1.255       .  A
O5           Cd9   1.939       .  S
O6           C17   1.272       .  A
O6           Cd9   2.044       .  S
Zn7          O18   2.026       .  S
Zn7          O20   1.909       .  S
Zn7          O12   1.849       .  S
O8           C19   1.296       .  A
O8          Cd13   2.192       .  S
Cd9          O11   1.988       .  S
Cd9          O12   1.936       .  S
Cd10         O14   2.076       .  S
Cd10         O23   2.056       .  S
Cd10         O12   1.960       .  S
O11          C21   1.265       .  A
O12         Cd13   1.963       .  S
Cd13         O15   2.214       .  S
O14          C21   1.273       .  A
C16          O20   1.262       .  A
C16          C86   1.460       .  S
C17         C131   1.460       .  S
C19         C527   1.462       .  S
C21          C44   1.453       .  S
C22        O1660   1.282   1_455  A
C22        O1679   1.284   1_455  A
C22         C433   1.462       .  S
O23        C1678   1.284       .  A
O24         C868   1.284       .  A
O24         Zn30   2.035       .  S
C25          O41   1.277       .  A
C25          O38   1.293       .  A
C25        C1819   1.522       .  S
O26          C39   1.288       .  A
O26       Cd1689   2.144       .  S
O27          C45   1.282       .  A
O27         Cd36   2.120       .  S
O28          C42   1.255       .  A
O28         Cd32   1.939       .  S
O29          C40   1.272       .  A
O29        Cd860   2.044       .  S
Zn30         O41   2.026       .  S
Zn30       O1699   1.910       .  S
Zn30         O35   1.849       .  S
O31          C42   1.296       .  A
O31         Cd36   2.192       .  S
Cd32         O34   1.988       .  S
Cd32        O857   2.044       .  S
Cd32         O35   1.935       .  S
Cd33         O37   2.075       .  S
Cd33         O46   2.056       .  S
Cd33       O1682   2.144       .  S
Cd33         O35   1.960       .  S
O34          C44   1.265       .  A
O35         Cd36   1.963       .  S
Cd36         O38   2.214       .  S
O37          C44   1.273       .  A
C39          O43   1.262       .  A
C39         C109   1.460       .  S
C40         O852   1.284       .  A
C40          C62   1.460       .  S
C42         C297   1.462       .  S
O43       Zn1686   1.910   1_455  S
C45          O46   1.284       .  A
C45         C341   1.462       .  S
O47        C1719   1.284       .  A
O47         Zn53   2.034       .  S
C48          O64   1.277       .  A
C48          O61   1.293       .  A
C48         C209   1.523       .  S
O49          C62   1.288       .  A
O49         Cd56   2.143       .  S
O50          C68   1.282       .  A
O50         Cd59   2.121       .  S
O51          C65   1.255       .  A
O51         Cd55   1.938       .  S
O52          C63   1.272   1_655  A
O52       Cd1711   2.043       .  S
Zn53         O64   2.027       .  S
Zn53         O66   1.910       .  S
Zn53         O58   1.850       .  S
O54          C65   1.296       .  A
O54         Cd59   2.194       .  S
Cd55         O57   1.988       .  S
Cd55       O1708   2.043       .  S
Cd55         O58   1.936       .  S
Cd56         O60   2.076       .  S
Cd56         O69   2.054       .  S
Cd56         O58   1.960       .  S
O57          C67   1.265       .  A
O58         Cd59   1.963       .  S
Cd59         O61   2.216       .  S
O60          C67   1.273       .  A
C62          O66   1.262       .  A
C63        O1703   1.284   1_455  A
C63         C108   1.459       .  S
C65         C343   1.462       .  S
C67          C90   1.453       .  S
C68          O69   1.284       .  A
C68         C387   1.462       .  S
O70          C86   1.284       .  A
O70         Zn76   2.035       .  S
C71          O87   1.277       .  A
C71          O84   1.293       .  A
C71         C692   1.523       .  S
O72          C85   1.288       .  A
O72         Cd79   2.143       .  S
O73          C91   1.283       .  A
O73         Cd82   2.122       .  S
O74          C88   1.255       .  A
O74         Cd78   1.939       .  S
O75          C86   1.272       .  A
O75         Cd78   2.044       .  S
Zn76         O87   2.026       .  S
Zn76         O89   1.910       .  S
Zn76         O81   1.849       .  S
O77          C88   1.296       .  A
O77         Cd82   2.193       .  S
Cd78         O80   1.988       .  S
Cd78         O81   1.936       .  S
Cd79         O83   2.075       .  S
Cd79         O92   2.055       .  S
Cd79         O81   1.960       .  S
O80          C90   1.265       .  A
O81         Cd82   1.963       .  S
Cd82         O84   2.214       .  S
O83          C90   1.273       .  A
C85          O89   1.262       .  A
C85         C132   1.459       .  S
C88         C481   1.462       .  S
C91          O92   1.284       .  A
C91         C525   1.462       .  S
O93         C109   1.284       .  A
O93         Zn99   2.035       .  S
C94         O110   1.277       .  A
C94         O107   1.293       .  A
C94        C1083   1.522   1_545  S
O95         C108   1.288       .  A
O95        Cd930   2.143       .  S
O96         C114   1.283       .  A
O96        Cd105   2.122       .  S
O97         C111   1.255       .  A
O97        Cd101   1.939       .  S
O98         C109   1.272       .  A
O98        Cd101   2.044       .  S
Zn99        O110   2.026       .  S
Zn99        O940   1.909   1_545  S
Zn99        O104   1.849       .  S
O100        C111   1.296       .  A
O100       Cd105   2.193       .  S
Cd101       O103   1.989       .  S
Cd101       O104   1.936       .  S
Cd102       O106   2.075       .  S
Cd102       O115   2.055       .  S
Cd102       O923   2.143   1_545  S
Cd102       O104   1.960       .  S
O103        C113   1.265       .  A
O104       Cd105   1.963       .  S
Cd105       O107   2.214       .  S
O106        C113   1.273       .  A
C108        O112   1.262       .  A
C111        C389   1.462       .  S
O112       Zn927   1.909       .  S
C113        C136   1.453       .  S
C114        O115   1.284       .  A
C114        C295   1.462       .  S
O116        C132   1.284       .  A
O116       Zn122   2.034       .  S
C117        O133   1.277       .  A
C117        O130   1.293       .  A
C117        C761   1.523       .  S
O118        C131   1.288       .  A
O118       Cd125   2.144       .  S
O119        C137   1.282       .  A
O119       Cd128   2.120       .  S
O120        C134   1.255       .  A
O120       Cd124   1.939       .  S
O121        C132   1.272       .  A
O121       Cd124   2.043       .  S
Zn122       O133   2.026       .  S
Zn122       O135   1.910       .  S
Zn122       O127   1.850       .  S
O123        C134   1.296       .  A
O123       Cd128   2.194       .  S
Cd124       O126   1.988       .  S
Cd124       O127   1.936       .  S
Cd125       O129   2.076       .  S
Cd125       O138   2.054       .  S
Cd125       O127   1.960       .  S
O126        C136   1.265       .  A
O127       Cd128   1.963       .  S
Cd128       O130   2.216       .  S
O129        C136   1.273       .  A
C131        O135   1.262       .  A
C134        C435   1.462       .  S
C137        O138   1.284       .  A
C137       C1307   1.462   1_545  S
O139        C155   1.284   1_556  A
O139       Zn145   2.034       .  S
C140        O156   1.277       .  A
C140        O153   1.293       .  A
C140        C784   1.523       .  S
O141        C154   1.288       .  A
O141       Cd148   2.144       .  S
O142       C1816   1.282   1_456  A
O142       Cd151   2.120       .  S
O143        C157   1.255   1_554  A
O143       Cd147   1.939       .  S
O144        C155   1.272       .  A
O144       Cd147   2.043       .  S
Zn145       O156   2.026       .  S
Zn145       O158   1.910       .  S
Zn145       O150   1.850   1_556  S
O146        C157   1.296       .  A
O146       Cd151   2.194       .  S
Cd147       O149   1.988       .  S
Cd147       O150   1.936       .  S
Cd148       O152   2.076       .  S
Cd148       O161   2.054       .  S
Cd148       O150   1.960       .  S
O149        C159   1.265       .  A
O150       Cd151   1.963   1_554  S
Cd151       O153   2.216       .  S
O152        C159   1.273       .  A
C154        O158   1.262   1_554  A
C154        C247   1.460       .  S
C155        C200   1.459       .  S
C157        C665   1.463       .  S
C159        C182   1.453       .  S
C160       O1798   1.282   1_554  A
C160       O1817   1.284       .  A
C160        C617   1.462       .  S
O161       C1816   1.284   1_455  A
O162        C178   1.284       .  A
O162       Zn168   2.035       .  S
C163        O179   1.277       .  A
C163        O176   1.293       .  A
C163       C1681   1.522   1_455  S
O164        C177   1.288       .  A
O164      Cd1827   2.143       .  S
O165        C183   1.283       .  A
O165       Cd174   2.122       .  S
O166        C180   1.255       .  A
O166       Cd170   1.939       .  S
O167        C178   1.272       .  A
O167       Cd170   2.044       .  S
Zn168       O179   2.026       .  S
Zn168      O1837   1.909   1_455  S
Zn168       O173   1.849       .  S
O169        C180   1.296       .  A
O169       Cd174   2.194       .  S
Cd170       O172   1.989       .  S
Cd170       O173   1.935       .  S
Cd171       O175   2.075       .  S
Cd171       O184   2.055   1_455  S
Cd171      O1820   2.143   1_455  S
Cd171       O173   1.960       .  S
O172        C182   1.265       .  A
O173       Cd174   1.962       .  S
Cd174       O176   2.214       .  S
O175        C182   1.273       .  A
C177        O181   1.262       .  A
C177        C224   1.459       .  S
C178        C269   1.460       .  S
C180        C412   1.462       .  S
O181      Zn1824   1.909       .  S
C183        O184   1.284   1_455  A
C183        C364   1.462       .  S
O185        C201   1.284   1_556  A
O185       Zn191   2.035       .  S
C186        O202   1.277       .  A
C186        O199   1.293       .  A
C186        C715   1.522       .  S
O187        C200   1.288       .  A
O187       Cd194   2.143       .  S
O188        C206   1.283   1_556  A
O188       Cd197   2.122       .  S
O189        C203   1.255   1_554  A
O189       Cd193   1.939       .  S
O190        C201   1.272       .  A
O190       Cd193   2.044       .  S
Zn191       O202   2.025       .  S
Zn191       O204   1.909       .  S
Zn191       O196   1.849   1_556  S
O192        C203   1.296       .  A
O192       Cd197   2.193       .  S
Cd193       O195   1.988       .  S
Cd193       O196   1.935       .  S
Cd194       O198   2.075       .  S
Cd194       O207   2.055       .  S
Cd194       O196   1.960       .  S
O195        C205   1.265       .  A
O196       Cd197   1.962   1_554  S
Cd197       O199   2.214       .  S
O198        C205   1.273       .  A
C200        O204   1.262   1_554  A
C201        C246   1.460       .  S
C203       C1447   1.462       .  S
C205        C228   1.453       .  S
C206        O207   1.284       .  A
C206        C571   1.462       .  S
O208        C224   1.284       .  A
O208      Zn1042   2.034   1_545  S
C209        O225   1.277       .  A
C209        O222   1.293       .  A
O210        C223   1.288       .  A
O210       Cd217   2.143       .  S
O211        C229   1.282       .  A
O211       Cd220   2.120       .  S
O212        C226   1.255       .  A
O212       Cd216   1.938       .  S
O213        C224   1.272       .  A
O213      Cd1044   2.043   1_545  S
Zn214       O225   2.027       .  S
Zn214       O227   1.910       .  S
Zn214      O1036   2.034       .  S
Zn214       O219   1.849       .  S
O215        C226   1.296       .  A
O215       Cd220   2.194       .  S
Cd216       O218   1.988       .  S
Cd216      O1041   2.043       .  S
Cd216       O219   1.936       .  S
Cd217       O221   2.075       .  S
Cd217       O230   2.054       .  S
Cd217       O219   1.960       .  S
O218        C228   1.265       .  A
O219       Cd220   1.963       .  S
Cd220       O222   2.216       .  S
O221        C228   1.273       .  A
C223        O227   1.262       .  A
C223        C270   1.460       .  S
C226        C320   1.462       .  S
C229        O230   1.284       .  A
C229        C410   1.462       .  S
O231        C247   1.284   1_556  A
O231       Zn237   2.035       .  S
C232        O248   1.277       .  A
C232        O245   1.293       .  A
C232        C738   1.522       .  S
O233        C246   1.288       .  A
O233       Cd240   2.144       .  S
O234       C1080   1.282   1_556  A
O234       Cd243   2.120       .  S
O235        C249   1.255   1_554  A
O235       Cd239   1.939       .  S
O236        C247   1.272       .  A
O236       Cd239   2.044       .  S
Zn237       O248   2.026       .  S
Zn237       O250   1.910       .  S
Zn237       O242   1.849   1_556  S
O238        C249   1.295       .  A
O238       Cd243   2.192       .  S
Cd239       O241   1.987       .  S
Cd239       O242   1.935       .  S
Cd240       O244   2.075       .  S
Cd240      O1081   2.056       .  S
Cd240       O242   1.960       .  S
O241        C251   1.265       .  A
O242       Cd243   1.963   1_554  S
Cd243       O245   2.213       .  S
O244        C251   1.273       .  A
C246        O250   1.262   1_554  A
C249        C573   1.462       .  S
C251        C274   1.453       .  S
C252        O253   1.284       .  A
C252       O1062   1.282   1_544  A
C252        C663   1.462       .  S
O253      Cd1068   2.056   1_545  S
O254       C1926   1.284   1_455  A
O254       Zn260   2.035       .  S
C255        O271   1.277       .  A
C255        O268   1.293       .  A
C255        C922   1.522       .  S
O256        C269   1.288       .  A
O256      Cd1091   2.144       .  S
O257        C275   1.282       .  A
O257       Cd266   2.120       .  S
O258        C272   1.255       .  A
O258       Cd262   1.939       .  S
O259        C270   1.272       .  A
O259      Cd1918   2.044       .  S
Zn260       O271   2.026       .  S
Zn260      O1101   1.910       .  S
Zn260       O265   1.849       .  S
O261        C272   1.295       .  A
O261       Cd266   2.192       .  S
Cd262       O264   1.987       .  S
Cd262      O1915   2.044       .  S
Cd262       O265   1.935       .  S
Cd263       O267   2.075       .  S
Cd263       O276   2.056       .  S
Cd263      O1084   2.144       .  S
Cd263       O265   1.960       .  S
O264        C274   1.265       .  A
O265       Cd266   1.962       .  S
Cd266       O268   2.214       .  S
O267        C274   1.273       .  A
C269        O273   1.262       .  A
C270       O1910   1.284       .  A
C272        C366   1.462       .  S
O273      Zn1088   1.910   1_545  S
C275        O276   1.284       .  A
C275        C318   1.462       .  S
O277        C293   1.277       .  A
O277       Zn283   2.027       .  S
C278        O294   1.284       .  A
C278        O291   1.272       .  A
C278        C338   1.459       .  S
O279        C292   1.288       .  A
O279       Cd286   2.144       .  S
O280        C298   1.265       .  A
O280       Cd289   1.988       .  S
O281        C295   1.296       .  A
O281       Cd285   2.194       .  S
O282        C293   1.293       .  A
O282      Cd1113   2.216       .  S
Zn283       O294   2.034       .  S
Zn283       O296   1.910       .  S
Zn283       O288   1.850       .  S
O284        C295   1.255   1_565  A
O284      Cd1117   1.939       .  S
Cd285       O287   2.120       .  S
Cd285      O1110   2.216   1_545  S
Cd285      O1116   1.963   1_545  S
Cd286       O299   2.076       .  S
Cd286      O1118   2.054       .  S
Cd286       O288   1.960       .  S
O287        C297   1.282       .  A
O288       Cd289   1.936       .  S
O288      Cd1113   1.963       .  S
Cd289       O291   2.043       .  S
Cd289      O1112   1.939       .  S
O290        C297   1.284   1_565  A
O290      Cd1114   2.054       .  S
C292        O296   1.262       .  A
C292        C370   1.460       .  S
C293        C523   1.523       .  S
C298        O299   1.273       .  A
C298       C1149   1.453       .  S
O300        C316   1.277       .  A
O300       Zn306   2.025       .  S
C301        O317   1.284       .  A
C301        O314   1.272       .  A
C301        C407   1.460       .  S
O302        C315   1.288       .  A
O302       Cd309   2.143       .  S
O303        C321   1.265       .  A
O303       Cd312   1.989       .  S
O304        C318   1.296       .  A
O304      Cd1136   2.194       .  S
O305        C316   1.293       .  A
O305       Cd308   2.214       .  S
Zn306       O317   2.035       .  S
Zn306       O319   1.909       .  S
Zn306       O311   1.849       .  S
O307        C318   1.255       .  A
O307      Cd1140   1.939       .  S
Cd308      O1132   2.194   1_545  S
Cd308      O1138   2.122   1_545  S
Cd308       O311   1.963       .  S
Cd309       O322   2.075       .  S
Cd309      O1141   2.055       .  S
Cd309       O311   1.960       .  S
O310        C320   1.283       .  A
O310      Cd1136   2.122       .  S
O311       Cd312   1.935       .  S
Cd312       O314   2.044       .  S
Cd312      O1135   1.939       .  S
O313        C320   1.284       .  A
O313      Cd1137   2.055       .  S
C315        O319   1.262       .  A
C315        C347   1.460       .  S
C316        C615   1.522       .  S
C321        O322   1.273       .  A
C321       C1126   1.453   1_545  S
O323        C339   1.277       .  A
O323       Zn329   2.026       .  S
C324        O340   1.284       .  A
C324        O337   1.272       .  A
C324        C384   1.460       .  S
O325        C338   1.288       .  A
O325       Cd332   2.143       .  S
O326        C344   1.265       .  A
O326       Cd335   1.988       .  S
O327        C341   1.296       .  A
O327      Cd1987   2.194       .  S
O328        C339   1.293       .  A
O328       Cd331   2.214       .  S
Zn329       O340   2.035       .  S
Zn329       O342   1.909       .  S
Zn329       O334   1.849       .  S
O330        C341   1.255       .  A
O330      Cd1991   1.939       .  S
Cd331      O1983   2.194   1_455  S
Cd331      O1989   2.122   1_455  S
Cd331       O334   1.963       .  S
Cd332       O345   2.075       .  S
Cd332      O1992   2.055       .  S
Cd332       O334   1.960       .  S
O333        C343   1.283       .  A
O333      Cd1987   2.122       .  S
O334       Cd335   1.936       .  S
Cd335       O337   2.044       .  S
Cd335      O1986   1.939       .  S
O336        C343   1.284       .  A
O336      Cd1988   2.055       .  S
C338        O342   1.262       .  A
C339        C477   1.523       .  S
C344        O345   1.273       .  A
C344       C2023   1.453   1_455  S
O346        C362   1.277       .  A
O346       Zn352   2.026       .  S
C347        O363   1.284       .  A
C347        O360   1.272       .  A
O348        C361   1.288       .  A
O348       Cd355   2.143       .  S
O349        C367   1.265       .  A
O349       Cd358   1.988       .  S
O350        C364   1.296       .  A
O350      Cd2010   2.194   1_455  S
O351        C362   1.293       .  A
O351       Cd354   2.216       .  S
Zn352       O363   2.034       .  S
Zn352       O365   1.910       .  S
Zn352       O357   1.850       .  S
O353        C364   1.255   1_655  A
O353      Cd2014   1.939       .  S
Cd354      O2006   2.194       .  S
Cd354      O2012   2.120       .  S
Cd354       O357   1.963       .  S
Cd355       O368   2.075       .  S
Cd355      O2015   2.054       .  S
Cd355       O357   1.960       .  S
O356        C366   1.282       .  A
O356      Cd2010   2.120   1_455  S
O357       Cd358   1.936       .  S
Cd358       O360   2.043       .  S
Cd358      O2009   1.939       .  S
O359        C366   1.284   1_655  A
O359      Cd2011   2.054       .  S
C361        O365   1.262       .  A
C361        C393   1.460       .  S
C362        C569   1.523       .  S
C367        O368   1.273       .  A
C367       C2000   1.453       .  S
O369        C385   1.277       .  A
O369       Zn375   2.026       .  S
C370        O386   1.284       .  A
C370        O383   1.272       .  A
O371        C384   1.288       .  A
O371       Cd378   2.144       .  S
O372        C390   1.265       .  A
O372       Cd381   1.987       .  S
O373        C387   1.296       .  A
O373       Cd377   2.192       .  S
O374        C385   1.293       .  A
O374       Cd377   2.214       .  S
Zn375       O386   2.035       .  S
Zn375       O388   1.910       .  S
Zn375       O380   1.849       .  S
O376        C387   1.255       .  A
O376       Cd381   1.938       .  S
Cd377       O379   2.120       .  S
Cd377       O380   1.963       .  S
Cd378       O382   2.056       .  S
Cd378       O391   2.075       .  S
Cd378       O380   1.960       .  S
O379        C389   1.282       .  A
O380       Cd381   1.935       .  S
Cd381       O383   2.044       .  S
O382        C389   1.284       .  A
C384        O388   1.262       .  A
C385        C431   1.523       .  S
C390        O391   1.273       .  A
C390        C413   1.453       .  S
O392        C408   1.277       .  A
O392       Zn398   2.026       .  S
C393        O409   1.284       .  A
C393        O406   1.272       .  A
O394        C407   1.288       .  A
O394       Cd401   2.144       .  S
O395        C413   1.265       .  A
O395       Cd404   1.988       .  S
O396        C410   1.295       .  A
O396       Cd400   2.192       .  S
O397        C408   1.293       .  A
O397       Cd400   2.214       .  S
Zn398       O409   2.035       .  S
Zn398       O411   1.910       .  S
Zn398       O403   1.849       .  S
O399        C410   1.255       .  A
O399       Cd404   1.939       .  S
Cd400       O402   2.120       .  S
Cd400       O403   1.962       .  S
Cd401       O405   2.056       .  S
Cd401       O414   2.075       .  S
Cd401       O403   1.960       .  S
O402        C412   1.282       .  A
O403       Cd404   1.935       .  S
Cd404       O406   2.044       .  S
O405        C412   1.284       .  A
C407        O411   1.262       .  A
C408        C661   1.522       .  S
C413        O414   1.273       .  A
O415        C431   1.277       .  A
O415       Zn421   2.026       .  S
C416        O432   1.284       .  A
C416        O429   1.272       .  A
C416        C476   1.460       .  S
O417        C430   1.288       .  A
O417       Cd424   2.143       .  S
O418        C436   1.265       .  A
O418       Cd427   1.989       .  S
O419        C433   1.296       .  A
O419       Cd423   2.193       .  S
O420        C431   1.293       .  A
O420       Cd423   2.214       .  S
Zn421       O432   2.035       .  S
Zn421       O434   1.909       .  S
Zn421       O426   1.850       .  S
O422        C433   1.255       .  A
O422       Cd427   1.939       .  S
Cd423       O425   2.121       .  S
Cd423       O426   1.963       .  S
Cd424       O428   2.055       .  S
Cd424       O437   2.075       .  S
Cd424       O426   1.960       .  S
O425        C435   1.283       .  A
O426       Cd427   1.936       .  S
Cd427       O429   2.044       .  S
O428        C435   1.284       .  A
C430        O434   1.262       .  A
C430        C508   1.459       .  S
C436        O437   1.273       .  A
C436        C459   1.453       .  S
O438        C454   1.277       .  A
O438       Zn444   2.026       .  S
C439        O452   1.272       .  A
C439       O2111   1.284       .  A
C439        C545   1.460       .  S
O440        C453   1.288       .  A
O440       Cd447   2.144       .  S
O441        C459   1.265       .  A
O441       Cd450   1.988       .  S
O442        C456   1.296       .  A
O442       Cd446   2.195       .  S
O443        C454   1.293       .  A
O443       Cd446   2.216       .  S
Zn444       O455   2.034       .  S
Zn444       O457   1.910       .  S
Zn444       O449   1.850       .  S
O445        C456   1.255       .  A
O445       Cd450   1.939       .  S
Cd446       O448   2.120       .  S
Cd446       O449   1.963       .  S
Cd447       O451   2.054       .  S
Cd447       O460   2.076       .  S
Cd447       O449   1.960       .  S
O448        C458   1.282       .  A
O449       Cd450   1.936       .  S
Cd450      O2108   2.043       .  S
O451        C458   1.284       .  A
O452      Cd2106   2.043       .  S
C453        O457   1.262       .  A
C453        C485   1.460       .  S
C454        C684   1.523       .  S
O455       C2095   1.284   1_455  A
C456        C827   1.463       .  S
C458        C709   1.461       .  S
C459        O460   1.273       .  A
O461        C477   1.277       .  A
O461       Zn467   2.026       .  S
C462        O478   1.284       .  A
C462        O475   1.272       .  A
C462        C522   1.460       .  S
O463        C476   1.288       .  A
O463       Cd470   2.144       .  S
O464        C482   1.265       .  A
O464       Cd473   1.987       .  S
O465        C479   1.295       .  A
O465       Cd469   2.192       .  S
O466        C477   1.293       .  A
O466       Cd469   2.214       .  S
Zn467       O478   2.035       .  S
Zn467       O480   1.910       .  S
Zn467       O472   1.849       .  S
O468        C479   1.255       .  A
O468       Cd473   1.939       .  S
Cd469       O471   2.120       .  S
Cd469       O472   1.963       .  S
Cd470       O474   2.056       .  S
Cd470       O483   2.075       .  S
Cd470       O472   1.960       .  S
O471       C2137   1.282   1_455  A
O472       Cd473   1.935       .  S
Cd473       O475   2.044       .  S
O474       C2137   1.284   1_455  A
C476        O480   1.262       .  A
C479        C965   1.462       .  S
C481       O2127   1.282       .  A
C481       O2130   1.284       .  A
C482        O483   1.273       .  A
C482        C505   1.453       .  S
O484        C500   1.277       .  A
O484       Zn490   2.026       .  S
C485        O501   1.284       .  A
C485        O498   1.272       .  A
O486        C499   1.288       .  A
O486      Cd2149   2.144       .  S
O487        C505   1.265       .  A
O487       Cd496   1.988       .  S
O488        C502   1.295       .  A
O488       Cd492   2.192       .  S
O489        C500   1.293       .  A
O489       Cd492   2.214       .  S
Zn490      O1329   2.035       .  S
Zn490      O2159   1.910   1_455  S
Zn490       O495   1.849       .  S
O491        C502   1.255       .  A
O491       Cd496   1.939       .  S
Cd492       O494   2.120       .  S
Cd492       O495   1.963       .  S
Cd493       O497   2.056   1_455  S
Cd493       O506   2.075       .  S
Cd493      O2142   2.144   1_455  S
Cd493       O495   1.960       .  S
O494        C504   1.282       .  A
O495       Cd496   1.936       .  S
Cd496      O1326   2.044       .  S
O497        C504   1.284   1_655  A
O498      Cd1324   2.044   1_545  S
C499        O503   1.262       .  A
C499        C531   1.460       .  S
C500       C2248   1.523   1_455  S
O501      Zn1318   2.035   1_545  S
C502        C781   1.462       .  S
O503      Zn2146   1.910       .  S
C504        C824   1.462       .  S
C505        O506   1.273       .  A
O507        C523   1.277       .  A
O507       Zn513   2.027       .  S
C508        O524   1.284       .  A
C508        O521   1.272       .  A
O509        C522   1.288       .  A
O509       Cd516   2.144       .  S
O510        C528   1.265       .  A
O510       Cd519   1.988       .  S
O511        C525   1.296       .  A
O511       Cd515   2.195       .  S
O512        C523   1.293       .  A
O512       Cd515   2.216       .  S
Zn513       O524   2.034       .  S
Zn513       O526   1.910       .  S
Zn513       O518   1.850       .  S
O514        C525   1.255       .  A
O514       Cd519   1.938       .  S
Cd515       O517   2.121       .  S
Cd515       O518   1.963       .  S
Cd516       O529   2.076       .  S
Cd516      O1348   2.054       .  S
Cd516       O518   1.960       .  S
O517       C1355   1.282       .  A
O518       Cd519   1.936       .  S
Cd519       O521   2.043       .  S
O520        C527   1.284       .  A
O520      Cd1344   2.054   1_545  S
C522        O526   1.262       .  A
C527       O1345   1.282   1_545  A
C528        O529   1.273       .  A
C528        C551   1.453       .  S
O530        C546   1.277       .  A
O530       Zn536   2.025       .  S
C531        O547   1.284       .  A
C531        O544   1.272       .  A
O532        C545   1.288       .  A
O532      Cd1367   2.143       .  S
O533        C551   1.265       .  A
O533       Cd542   1.988       .  S
O534        C548   1.296       .  A
O534       Cd538   2.193       .  S
O535        C546   1.293       .  A
O535       Cd538   2.214       .  S
Zn536       O547   2.035       .  S
Zn536      O1377   1.910       .  S
Zn536       O541   1.849       .  S
O537        C548   1.255       .  A
O537       Cd542   1.939       .  S
Cd538       O540   2.122       .  S
Cd538       O541   1.962       .  S
Cd539       O543   2.056       .  S
Cd539       O552   2.075       .  S
Cd539      O1360   2.143       .  S
Cd539       O541   1.960       .  S
O540        C550   1.283       .  A
O541       Cd542   1.935       .  S
Cd542       O544   2.044       .  S
O543        C550   1.284       .  A
C545        O549   1.262       .  A
C546       C1466   1.522       .  S
C548        C712   1.462       .  S
O549      Zn1364   1.910   1_545  S
C550        C778   1.463       .  S
C551        O552   1.273       .  A
O553        C569   1.277       .  A
O553       Zn559   2.026       .  S
C554        O570   1.284   1_556  A
C554        O567   1.272       .  A
C554        C660   1.459       .  S
O555        C568   1.288       .  A
O555       Cd562   2.143       .  S
O556        C574   1.265       .  A
O556       Cd565   1.988       .  S
O557        C571   1.296       .  A
O557       Cd561   2.195       .  S
O558        C569   1.293       .  A
O558       Cd561   2.216       .  S
Zn559       O570   2.034       .  S
Zn559       O572   1.910       .  S
Zn559       O564   1.849   1_554  S
O560        C571   1.255   1_556  A
O560       Cd565   1.938       .  S
Cd561       O563   2.120       .  S
Cd561       O564   1.963   1_554  S
Cd562       O566   2.054       .  S
Cd562       O575   2.075       .  S
Cd562       O564   1.960       .  S
O563       C2229   1.282   1_554  A
O564       Cd565   1.936       .  S
Cd565       O567   2.043       .  S
O566       C2229   1.284       .  A
C568        O572   1.262   1_556  A
C568        C600   1.460       .  S
C573       O2219   1.282   1_456  A
C573       O2222   1.284   1_455  A
C574        O575   1.273       .  A
C574        C597   1.453       .  S
O576        C592   1.277       .  A
O576       Zn582   2.026       .  S
C577        O593   1.284       .  A
C577        O590   1.272       .  A
C577        C637   1.460       .  S
O578        C591   1.288       .  A
O578      Cd2241   2.143       .  S
O579        C597   1.265       .  A
O579       Cd588   1.988       .  S
O580        C594   1.296       .  A
O580       Cd584   2.193       .  S
O581        C592   1.293       .  A
O581       Cd584   2.214       .  S
Zn582       O593   2.035       .  S
Zn582      O2251   1.909       .  S
Zn582       O587   1.849       .  S
O583        C594   1.255       .  A
O583       Cd588   1.939       .  S
Cd584       O586   2.122       .  S
Cd584       O587   1.962       .  S
Cd585       O589   2.055       .  S
Cd585       O598   2.075       .  S
Cd585      O2234   2.143       .  S
Cd585       O587   1.960       .  S
O586        C596   1.283       .  A
O587       Cd588   1.936       .  S
Cd588       O590   2.043       .  S
O589        C596   1.284       .  A
C591        O595   1.262       .  A
C591        C669   1.459       .  S
C592       C2156   1.523       .  S
C594        C735   1.462       .  S
O595      Zn2238   1.909   1_455  S
C596        C801   1.463       .  S
C597        O598   1.273       .  A
O599        C615   1.277       .  A
O599       Zn605   2.026       .  S
C600        O616   1.284   1_556  A
C600        O613   1.272       .  A
O601        C614   1.288       .  A
O601       Cd608   2.144       .  S
O602        C620   1.265       .  A
O602       Cd611   1.987       .  S
O603        C617   1.295       .  A
O603       Cd607   2.192       .  S
O604        C615   1.293       .  A
O604       Cd607   2.213       .  S
Zn605       O616   2.035       .  S
Zn605       O618   1.910       .  S
Zn605       O610   1.849   1_554  S
O606        C617   1.255   1_556  A
O606       Cd611   1.939       .  S
Cd607       O609   2.120       .  S
Cd607       O610   1.962   1_554  S
Cd608       O612   2.056       .  S
Cd608       O621   2.075       .  S
Cd608       O610   1.960       .  S
O609        C619   1.282   1_554  A
O610       Cd611   1.935       .  S
Cd611       O613   2.044       .  S
O612        C619   1.284       .  A
C614        O618   1.262   1_556  A
C614        C646   1.460       .  S
C619       C1031   1.462   1_545  S
C620        O621   1.273       .  A
C620        C643   1.453       .  S
O622        C638   1.277       .  A
O622       Zn628   2.026       .  S
C623        O636   1.272   1_455  A
C623       O2295   1.284   1_455  A
C623        C683   1.460       .  S
O624        C637   1.288       .  A
O624      Cd1459   2.144       .  S
O625        C643   1.265       .  A
O625       Cd634   1.987       .  S
O626        C640   1.296       .  A
O626       Cd630   2.192       .  S
O627        C638   1.293       .  A
O627       Cd630   2.214       .  S
Zn628       O639   2.035       .  S
Zn628      O1469   1.910   1_545  S
Zn628       O633   1.849       .  S
O629        C640   1.255       .  A
O629       Cd634   1.939       .  S
Cd630       O632   2.120       .  S
Cd630       O633   1.963       .  S
Cd631       O635   2.056       .  S
Cd631       O644   2.075       .  S
Cd631      O1452   2.144   1_545  S
Cd631       O633   1.960       .  S
O632        C642   1.282       .  A
O633       Cd634   1.935       .  S
Cd634      O2292   2.044       .  S
O635        C642   1.284       .  A
O636      Cd2290   2.044       .  S
C637        O641   1.262       .  A
C638       C1374   1.522   1_545  S
O639       C2279   1.284       .  A
C640        C804   1.462       .  S
O641      Zn1456   1.910       .  S
C642        C755   1.462       .  S
C643        O644   1.273       .  A
O645        C661   1.277       .  A
O645       Zn651   2.025       .  S
C646        O662   1.284   1_556  A
C646        O659   1.272       .  A
O647        C660   1.288       .  A
O647       Cd654   2.143       .  S
O648        C666   1.265       .  A
O648       Cd657   1.988       .  S
O649        C663   1.296       .  A
O649       Cd653   2.193       .  S
O650        C661   1.293       .  A
O650       Cd653   2.214       .  S
Zn651       O662   2.035       .  S
Zn651       O664   1.909       .  S
Zn651       O656   1.849   1_554  S
O652        C663   1.255   1_556  A
O652       Cd657   1.939       .  S
Cd653       O655   2.122       .  S
Cd653       O656   1.962   1_554  S
Cd654       O658   2.055       .  S
Cd654       O667   2.075       .  S
Cd654       O656   1.960       .  S
O655        C665   1.283   1_554  A
O656       Cd657   1.936       .  S
Cd657       O659   2.044       .  S
O658        C665   1.284       .  A
C660        O664   1.262   1_556  A
C666        O667   1.273       .  A
C666        C689   1.453       .  S
O668        C684   1.277       .  A
O668       Zn674   2.026       .  S
C669        O682   1.272       .  A
C669       O1513   1.284       .  A
O670        C683   1.288       .  A
O670       Cd677   2.144       .  S
O671        C689   1.265       .  A
O671       Cd680   1.988       .  S
O672        C686   1.296       .  A
O672       Cd676   2.194       .  S
O673        C684   1.293       .  A
O673       Cd676   2.215       .  S
Zn674       O685   2.034       .  S
Zn674       O687   1.910       .  S
Zn674       O679   1.849       .  S
O675        C686   1.255       .  A
O675       Cd680   1.939       .  S
Cd676       O678   2.120       .  S
Cd676       O679   1.963       .  S
Cd677       O681   2.054       .  S
Cd677       O690   2.076       .  S
Cd677       O679   1.960       .  S
O678        C688   1.282       .  A
O679       Cd680   1.936       .  S
Cd680      O1510   2.043       .  S
O681        C688   1.284       .  A
O682      Cd1508   2.043       .  S
C683        O687   1.262       .  A
O685       C1497   1.284       .  A
C686        C758   1.463       .  S
C688        C732   1.462       .  S
C689        O690   1.273       .  A
O691        C707   1.284       .  A
O691       Zn697   2.035       .  S
C692        O708   1.277       .  A
C692        O705   1.293       .  A
O693        C706   1.288       .  A
O693       Cd700   2.144       .  S
O694        C712   1.282       .  A
O694       Cd703   2.120       .  S
O695        C709   1.255       .  A
O695       Cd699   1.939       .  S
O696        C707   1.272       .  A
O696       Cd699   2.044       .  S
Zn697       O708   2.026       .  S
Zn697       O710   1.909       .  S
Zn697       O702   1.849       .  S
O698        C709   1.295       .  A
O698       Cd703   2.192       .  S
Cd699       O701   1.987       .  S
Cd699       O702   1.936       .  S
Cd700       O704   2.075       .  S
Cd700       O713   2.056       .  S
Cd700       O702   1.960       .  S
O701        C711   1.265       .  A
O702       Cd703   1.963       .  S
Cd703       O705   2.214       .  S
O704        C711   1.273       .  A
C706        O710   1.262       .  A
C706        C822   1.460       .  S
C707        C775   1.460       .  S
C711        C734   1.453       .  S
C712        O713   1.284       .  A
O714        C730   1.284       .  A
O714       Zn720   2.035       .  S
C715        O731   1.277       .  A
C715        O728   1.293       .  A
O716        C729   1.288       .  A
O716       Cd723   2.143       .  S
O717        C735   1.282       .  A
O717       Cd726   2.120       .  S
O718        C732   1.255       .  A
O718       Cd722   1.939       .  S
O719        C730   1.272       .  A
O719       Cd722   2.044       .  S
Zn720       O731   2.026       .  S
Zn720       O733   1.910       .  S
Zn720       O725   1.849       .  S
O721        C732   1.295       .  A
O721       Cd726   2.192       .  S
Cd722       O724   1.988       .  S
Cd722       O725   1.935       .  S
Cd723       O727   2.075       .  S
Cd723       O736   2.056       .  S
Cd723       O725   1.960       .  S
O724        C734   1.265       .  A
O725       Cd726   1.963       .  S
Cd726       O728   2.213       .  S
O727        C734   1.273       .  A
C729        O733   1.262       .  A
C729        C753   1.460       .  S
C730        C798   1.460       .  S
C735        O736   1.284       .  A
O737        C753   1.284       .  A
O737       Zn743   2.034       .  S
C738        O754   1.277       .  A
C738        O751   1.293       .  A
O739        C752   1.288       .  A
O739       Cd746   2.143       .  S
O740        C758   1.283       .  A
O740       Cd749   2.121       .  S
O741        C755   1.255   1_565  A
O741      Cd1573   1.939       .  S
O742        C753   1.272       .  A
O742       Cd745   2.044       .  S
Zn743       O754   2.025       .  S
Zn743       O756   1.909       .  S
Zn743       O748   1.849       .  S
O744        C755   1.296       .  A
O744       Cd749   2.193       .  S
Cd745       O747   1.988       .  S
Cd745      O1569   1.939       .  S
Cd745       O748   1.936       .  S
Cd746       O750   2.075       .  S
Cd746      O1587   2.056       .  S
Cd746       O748   1.960       .  S
O747        C757   1.265       .  A
O748      Cd1577   1.962       .  S
Cd749      O1579   2.214   1_545  S
Cd749      O1576   1.962   1_545  S
O750        C757   1.273       .  A
O751      Cd1577   2.214       .  S
C752        O756   1.262       .  A
C752        C799   1.459       .  S
C757       C1608   1.453       .  S
C758        O759   1.284   1_545  A
O759      Cd1574   2.056       .  S
O760        C776   1.284       .  A
O760       Zn766   2.034       .  S
C761        O777   1.277       .  A
C761        O774   1.293       .  A
O762        C775   1.288       .  A
O762       Cd769   2.143       .  S
O763        C781   1.282       .  A
O763      Cd1600   2.120       .  S
O764        C778   1.255       .  A
O764      Cd1596   1.938       .  S
O765        C776   1.272       .  A
O765       Cd768   2.043       .  S
Zn766       O777   2.027       .  S
Zn766       O779   1.910       .  S
Zn766       O771   1.850       .  S
O767        C778   1.296       .  A
O767      Cd1600   2.195       .  S
Cd768       O770   1.988       .  S
Cd768      O1592   1.938       .  S
Cd768       O771   1.936       .  S
Cd769       O773   2.075       .  S
Cd769       O782   2.054       .  S
Cd769       O771   1.960       .  S
O770        C780   1.265       .  A
O771       Cd772   1.963       .  S
Cd772       O774   2.216       .  S
Cd772      O1591   2.120   1_545  S
Cd772      O1595   2.195   1_545  S
O773        C780   1.273       .  A
C775        O779   1.262       .  A
C776        C821   1.460       .  S
C780       C1585   1.453   1_545  S
C781       O1610   1.284       .  A
O782       C1609   1.284   1_545  A
O783        C799   1.284       .  A
O783       Zn789   2.034       .  S
C784        O800   1.277       .  A
C784        O797   1.293       .  A
O785        C798   1.288       .  A
O785       Cd792   2.143       .  S
O786        C804   1.282       .  A
O786      Cd2451   2.121       .  S
O787        C801   1.255       .  A
O787      Cd2447   1.938       .  S
O788        C799   1.272       .  A
O788       Cd791   2.043       .  S
Zn789       O800   2.026       .  S
Zn789       O802   1.910       .  S
Zn789       O794   1.850       .  S
O790        C801   1.296       .  A
O790      Cd2451   2.195       .  S
Cd791       O793   1.988       .  S
Cd791      O2443   1.938       .  S
Cd791       O794   1.936       .  S
Cd792       O796   2.075       .  S
Cd792      O2461   2.054       .  S
Cd792       O794   1.960       .  S
O793        C803   1.265       .  A
O794       Cd795   1.963       .  S
Cd795       O797   2.216       .  S
Cd795      O2442   2.121   1_455  S
Cd795      O2446   2.195   1_455  S
O796        C803   1.273       .  A
C798        O802   1.262       .  A
C803       C2482   1.453   1_455  S
C804        O805   1.284       .  A
O805      Cd2448   2.054       .  S
O806        C822   1.284       .  A
O806       Zn812   2.035       .  S
C807        O823   1.277       .  A
C807        O820   1.293       .  A
O808        C821   1.288       .  A
O808       Cd815   2.143       .  S
O809        C827   1.283       .  A
O809       Cd818   2.122   1_455  S
O810        C824   1.255   1_655  A
O810      Cd2470   1.939       .  S
O811        C822   1.272       .  A
O811       Cd814   2.043       .  S
Zn812       O823   2.026       .  S
Zn812       O825   1.910       .  S
Zn812       O817   1.850       .  S
O813        C824   1.296       .  A
O813       Cd818   2.193   1_455  S
Cd814       O816   1.988       .  S
Cd814      O2466   1.939       .  S
Cd814       O817   1.936       .  S
Cd815       O819   2.075       .  S
Cd815      O2484   2.055       .  S
Cd815       O817   1.960       .  S
O816        C826   1.265       .  A
O817      Cd2474   1.962       .  S
Cd818      O2476   2.214       .  S
Cd818      O2473   1.962       .  S
O819        C826   1.273       .  A
O820      Cd2474   2.214       .  S
C821        O825   1.262       .  A
C826       C2459   1.453       .  S
C827        O828   1.284   1_455  A
O828      Cd2471   2.055       .  S
O829        C845   1.284       .  A
O829       Zn835   2.035       .  S
C830        O846   1.277       .  A
C830        O843   1.293       .  A
C830       C1635   1.522       .  S
O831        C844   1.288       .  A
O831       Cd838   2.144       .  S
O832       C2506   1.282       .  A
O832       Cd841   2.120       .  S
O833        C847   1.255       .  A
O833       Cd837   1.939       .  S
O834        C845   1.272       .  A
O834       Cd837   2.044       .  S
Zn835       O846   2.026       .  S
Zn835       O848   1.909       .  S
Zn835       O840   1.849       .  S
O836        C847   1.296       .  A
O836       Cd841   2.192       .  S
Cd837       O839   1.988       .  S
Cd837       O840   1.936       .  S
Cd838       O842   2.076       .  S
Cd838       O851   2.056       .  S
Cd838       O840   1.960       .  S
O839        C849   1.265       .  A
O840       Cd841   1.963       .  S
Cd841       O843   2.214       .  S
O842        C849   1.273       .  A
C844        O848   1.262       .  A
C844        C914   1.460       .  S
C845        C959   1.460       .  S
C847       C1355   1.462       .  S
C849        C872   1.453       .  S
C850       O2488   1.282   1_455  A
C850       O2507   1.284   1_455  A
C850       C1261   1.462       .  S
O851       C2506   1.284       .  A
O852       Zn858   2.035       .  S
C853        O869   1.277       .  A
C853        O866   1.293       .  A
C853       C2647   1.522       .  S
O854        C867   1.288       .  A
O854      Cd2517   2.144       .  S
O855        C873   1.282       .  A
O855       Cd864   2.120       .  S
O856        C870   1.255       .  A
O856       Cd860   1.939       .  S
O857        C868   1.272       .  A
Zn858       O869   2.026       .  S
Zn858      O2527   1.910       .  S
Zn858       O863   1.849       .  S
O859        C870   1.296       .  A
O859       Cd864   2.192       .  S
Cd860       O862   1.988       .  S
Cd860       O863   1.935       .  S
Cd861      O2510   2.144       .  S
Cd861       O865   2.075       .  S
Cd861       O874   2.056       .  S
Cd861       O863   1.960       .  S
O862        C872   1.265       .  A
O863       Cd864   1.963       .  S
Cd864       O866   2.214       .  S
O865        C872   1.273       .  A
C867        O871   1.262       .  A
C867        C937   1.460       .  S
C868        C890   1.460   1_545  S
C870       C1125   1.462       .  S
O871      Zn2514   1.910   1_455  S
C873        O874   1.284       .  A
C873       C1169   1.462       .  S
O875       C2547   1.284       .  A
O875       Zn881   2.034       .  S
C876        O892   1.277       .  A
C876        O889   1.293       .  A
C876       C1037   1.523       .  S
O877        C890   1.288       .  A
O877       Cd884   2.143       .  S
O878        C896   1.282       .  A
O878       Cd887   2.121       .  S
O879        C893   1.255       .  A
O879       Cd883   1.938       .  S
O880        C891   1.272   1_655  A
O880      Cd2539   2.043       .  S
Zn881       O892   2.027       .  S
Zn881       O894   1.910       .  S
Zn881       O886   1.850       .  S
O882        C893   1.296       .  A
O882       Cd887   2.194       .  S
Cd883      O2536   2.043       .  S
Cd883       O885   1.988       .  S
Cd883       O886   1.936       .  S
Cd884       O888   2.076       .  S
Cd884       O897   2.054       .  S
Cd884       O886   1.960       .  S
O885        C895   1.265       .  A
O886       Cd887   1.963       .  S
Cd887       O889   2.216       .  S
O888        C895   1.273       .  A
C890        O894   1.262       .  A
C891       O2531   1.284   1_455  A
C891        C936   1.459       .  S
C893       C1171   1.462       .  S
C895        C918   1.453       .  S
C896        O897   1.284       .  A
C896       C1215   1.462       .  S
O898        C914   1.284       .  A
O898       Zn904   2.035       .  S
C899        O915   1.277       .  A
C899        O912   1.293       .  A
C899       C1520   1.523       .  S
O900        C913   1.288       .  A
O900       Cd907   2.143       .  S
O901        C919   1.283       .  A
O901       Cd910   2.122       .  S
O902        C916   1.255       .  A
O902       Cd906   1.939       .  S
O903        C914   1.272       .  A
O903       Cd906   2.044       .  S
Zn904       O915   2.026       .  S
Zn904       O917   1.910       .  S
Zn904       O909   1.849       .  S
O905        C916   1.296       .  A
O905       Cd910   2.193       .  S
Cd906       O908   1.988       .  S
Cd906       O909   1.936       .  S
Cd907       O911   2.075       .  S
Cd907       O920   2.055       .  S
Cd907       O909   1.960       .  S
O908        C918   1.265       .  A
O909       Cd910   1.963       .  S
Cd910       O912   2.214       .  S
O911        C918   1.273       .  A
C913        O917   1.262       .  A
C913        C960   1.459       .  S
C916       C1309   1.462       .  S
C919        O920   1.284       .  A
C919       C1353   1.462       .  S
O921        C937   1.284       .  A
O921       Zn927   2.035       .  S
C922        O938   1.277       .  A
C922        O935   1.293       .  A
O923        C936   1.288       .  A
O924        C942   1.283       .  A
O924       Cd933   2.122       .  S
O925        C939   1.255       .  A
O925       Cd929   1.939       .  S
O926        C937   1.272       .  A
O926       Cd929   2.044       .  S
Zn927       O938   2.026       .  S
Zn927       O932   1.849       .  S
O928        C939   1.296       .  A
O928       Cd933   2.193       .  S
Cd929       O931   1.989       .  S
Cd929       O932   1.936       .  S
Cd930       O934   2.075       .  S
Cd930       O943   2.055       .  S
Cd930       O932   1.960       .  S
O931        C941   1.265       .  A
O932       Cd933   1.963       .  S
Cd933       O935   2.214       .  S
O934        C941   1.273       .  A
C936        O940   1.262       .  A
C939       C1217   1.462       .  S
C941        C964   1.453       .  S
C942        O943   1.284       .  A
C942       C1123   1.462       .  S
O944        C960   1.284       .  A
O944       Zn950   2.034       .  S
C945        O961   1.277       .  A
C945        O958   1.293       .  A
C945       C1589   1.523       .  S
O946        C959   1.288       .  A
O946       Cd953   2.144       .  S
O947        C965   1.282       .  A
O947       Cd956   2.120       .  S
O948        C962   1.255       .  A
O948       Cd952   1.939       .  S
O949        C960   1.272       .  A
O949       Cd952   2.043       .  S
Zn950       O961   2.026       .  S
Zn950       O963   1.910       .  S
Zn950       O955   1.850       .  S
O951        C962   1.296       .  A
O951       Cd956   2.194       .  S
Cd952       O954   1.988       .  S
Cd952       O955   1.936       .  S
Cd953       O957   2.076       .  S
Cd953       O966   2.054       .  S
Cd953       O955   1.960       .  S
O954        C964   1.265       .  A
O955       Cd956   1.963       .  S
Cd956       O958   2.216       .  S
O957        C964   1.273       .  A
C959        O963   1.262       .  A
C962       C1263   1.462       .  S
C965        O966   1.284       .  A
O967        C983   1.284   1_556  A
O967       Zn973   2.034       .  S
C968        O984   1.277       .  A
C968        O981   1.293       .  A
C968       C1612   1.523       .  S
O969        C982   1.288       .  A
O969       Cd976   2.144       .  S
O970       C2644   1.282   1_456  A
O970       Cd979   2.120       .  S
O971        C985   1.255   1_554  A
O971       Cd975   1.939       .  S
O972        C983   1.272       .  A
O972       Cd975   2.043       .  S
Zn973       O984   2.026       .  S
Zn973       O986   1.910       .  S
Zn973       O978   1.850   1_556  S
O974        C985   1.296       .  A
O974       Cd979   2.194       .  S
Cd975       O977   1.988       .  S
Cd975       O978   1.936       .  S
Cd976       O980   2.076       .  S
Cd976       O989   2.054       .  S
Cd976       O978   1.960       .  S
O977        C987   1.265       .  A
O978       Cd979   1.963   1_554  S
Cd979       O981   2.216       .  S
O980        C987   1.273       .  A
C982        O986   1.262   1_554  A
C982       C1075   1.460       .  S
C983       C1028   1.459       .  S
C985       C1493   1.463       .  S
C987       C1010   1.453       .  S
C988       O2626   1.282   1_554  A
C988       O2645   1.284       .  A
C988       C1445   1.462       .  S
O989       C2644   1.284   1_455  A
O990       C1006   1.284       .  A
O990       Zn996   2.035       .  S
C991       O1007   1.277       .  A
C991       O1004   1.293       .  A
C991       C2509   1.522   1_455  S
O992       C1005   1.288       .  A
O992      Cd2655   2.143       .  S
O993       C1011   1.283       .  A
O993      Cd1002   2.122       .  S
O994       C1008   1.255       .  A
O994       Cd998   1.939       .  S
O995       C1006   1.272       .  A
O995       Cd998   2.044       .  S
Zn996      O1007   2.026       .  S
Zn996      O2665   1.909   1_455  S
Zn996      O1001   1.849       .  S
O997       C1008   1.296       .  A
O997      Cd1002   2.194       .  S
Cd998      O1000   1.989       .  S
Cd998      O1001   1.935       .  S
Cd999      O2648   2.143   1_455  S
Cd999      O1003   2.075       .  S
Cd999      O1012   2.055   1_455  S
Cd999      O1001   1.960       .  S
O1000      C1010   1.265       .  A
O1001     Cd1002   1.962       .  S
Cd1002     O1004   2.214       .  S
O1003      C1010   1.273       .  A
C1005      O1009   1.262       .  A
C1005      C1052   1.459       .  S
C1006      C1097   1.460       .  S
C1008      C1240   1.462       .  S
O1009     Zn2652   1.909       .  S
C1011      O1012   1.284   1_455  A
C1011      C1192   1.462       .  S
O1013      C1029   1.284   1_556  A
O1013     Zn1019   2.035       .  S
C1014      O1030   1.277       .  A
C1014      O1027   1.293       .  A
C1014      C1543   1.522       .  S
O1015      C1028   1.288       .  A
O1015     Cd1022   2.143       .  S
O1016      C1034   1.283   1_556  A
O1016     Cd1025   2.122       .  S
O1017      C1031   1.255   1_554  A
O1017     Cd1021   1.939       .  S
O1018      C1029   1.272       .  A
O1018     Cd1021   2.044       .  S
Zn1019     O1030   2.025       .  S
Zn1019     O1032   1.909       .  S
Zn1019     O1024   1.849   1_556  S
O1020      C1031   1.296       .  A
O1020     Cd1025   2.193       .  S
Cd1021     O1023   1.988       .  S
Cd1021     O1024   1.935       .  S
Cd1022     O1026   2.075       .  S
Cd1022     O1035   2.055       .  S
Cd1022     O1024   1.960       .  S
O1023      C1033   1.265       .  A
O1024     Cd1025   1.962   1_554  S
Cd1025     O1027   2.214       .  S
O1026      C1033   1.273       .  A
C1028      O1032   1.262   1_554  A
C1029      C1074   1.460       .  S
C1033      C1056   1.453       .  S
C1034      O1035   1.284       .  A
C1034      C1399   1.462       .  S
O1036      C1052   1.284       .  A
C1037      O1053   1.277       .  A
C1037      O1050   1.293       .  A
O1038      C1051   1.288       .  A
O1038     Cd1045   2.143       .  S
O1039      C1057   1.282       .  A
O1039     Cd1048   2.120       .  S
O1040      C1054   1.255       .  A
O1040     Cd1044   1.938       .  S
O1041      C1052   1.272       .  A
Zn1042     O1053   2.027       .  S
Zn1042     O1055   1.910       .  S
Zn1042     O1047   1.849       .  S
O1043      C1054   1.296       .  A
O1043     Cd1048   2.194       .  S
Cd1044     O1046   1.988       .  S
Cd1044     O1047   1.936       .  S
Cd1045     O1049   2.075       .  S
Cd1045     O1058   2.054       .  S
Cd1045     O1047   1.960       .  S
O1046      C1056   1.265       .  A
O1047     Cd1048   1.963       .  S
Cd1048     O1050   2.216       .  S
O1049      C1056   1.273       .  A
C1051      O1055   1.262       .  A
C1051      C1098   1.460       .  S
C1054      C1148   1.462       .  S
C1057      O1058   1.284       .  A
C1057      C1238   1.462       .  S
O1059      C1075   1.284   1_556  A
O1059     Zn1065   2.035       .  S
C1060      O1076   1.277       .  A
C1060      O1073   1.293       .  A
C1060      C1566   1.522       .  S
O1061      C1074   1.288       .  A
O1061     Cd1068   2.144       .  S
O1062     Cd1071   2.120       .  S
O1063      C1077   1.255   1_554  A
O1063     Cd1067   1.939       .  S
O1064      C1075   1.272       .  A
O1064     Cd1067   2.044       .  S
Zn1065     O1076   2.026       .  S
Zn1065     O1078   1.910       .  S
Zn1065     O1070   1.849   1_556  S
O1066      C1077   1.295       .  A
O1066     Cd1071   2.192       .  S
Cd1067     O1069   1.987       .  S
Cd1067     O1070   1.935       .  S
Cd1068     O1072   2.075       .  S
Cd1068     O1070   1.960       .  S
O1069      C1079   1.265       .  A
O1070     Cd1071   1.963   1_554  S
Cd1071     O1073   2.213       .  S
O1072      C1079   1.273       .  A
C1074      O1078   1.262   1_554  A
C1077      C1401   1.462       .  S
C1079      C1102   1.453       .  S
C1080      O1081   1.284       .  A
C1080      C1491   1.462       .  S
O1082      C2754   1.284   1_455  A
O1082     Zn1088   2.035       .  S
C1083      O1099   1.277       .  A
C1083      O1096   1.293       .  A
O1084      C1097   1.288       .  A
O1085      C1103   1.282       .  A
O1085     Cd1094   2.120       .  S
O1086      C1100   1.255       .  A
O1086     Cd1090   1.939       .  S
O1087      C1098   1.272       .  A
O1087     Cd2746   2.044       .  S
Zn1088     O1099   2.026       .  S
Zn1088     O1093   1.849       .  S
O1089      C1100   1.295       .  A
O1089     Cd1094   2.192       .  S
Cd1090     O2743   2.044       .  S
Cd1090     O1092   1.987       .  S
Cd1090     O1093   1.935       .  S
Cd1091     O1095   2.075   1_545  S
Cd1091     O1104   2.056       .  S
Cd1091     O1093   1.960   1_545  S
O1092      C1102   1.265       .  A
O1093     Cd1094   1.962       .  S
Cd1094     O1096   2.214       .  S
O1095      C1102   1.273       .  A
C1097      O1101   1.262       .  A
C1098      O2738   1.284       .  A
C1100      C1194   1.462       .  S
C1103      O1104   1.284   1_565  A
C1103      C1146   1.462   1_565  S
O1105      C1121   1.277       .  A
O1105     Zn1111   2.027       .  S
C1106      O1122   1.284       .  A
C1106      O1119   1.272       .  A
C1106      C1166   1.459       .  S
O1107      C1120   1.288       .  A
O1107     Cd1114   2.144       .  S
O1108      C1126   1.265       .  A
O1108     Cd1117   1.988       .  S
O1109      C1123   1.296       .  A
O1109     Cd1113   2.194       .  S
O1110      C1121   1.293       .  A
Zn1111     O1122   2.034       .  S
Zn1111     O1124   1.910       .  S
Zn1111     O1116   1.850       .  S
O1112      C1123   1.255       .  A
Cd1113     O1115   2.120       .  S
Cd1114     O1127   2.076       .  S
Cd1114     O1116   1.960       .  S
O1115      C1125   1.282       .  A
O1116     Cd1117   1.936       .  S
Cd1117     O1119   2.043       .  S
O1118      C1125   1.284       .  A
C1120      O1124   1.262       .  A
C1120      C1198   1.460       .  S
C1121      C1351   1.523       .  S
C1126      O1127   1.273       .  A
O1128      C1144   1.277       .  A
O1128     Zn1134   2.025       .  S
C1129      O1145   1.284       .  A
C1129      O1142   1.272       .  A
C1129      C1235   1.460       .  S
O1130      C1143   1.288       .  A
O1130     Cd1137   2.143       .  S
O1131      C1149   1.265       .  A
O1131     Cd1140   1.989       .  S
O1132      C1146   1.296   1_565  A
O1133      C1144   1.293       .  A
O1133     Cd1136   2.214       .  S
Zn1134     O1145   2.035       .  S
Zn1134     O1147   1.909       .  S
Zn1134     O1139   1.849       .  S
O1135      C1146   1.255       .  A
Cd1136     O1139   1.963       .  S
Cd1137     O1150   2.075       .  S
Cd1137     O1139   1.960       .  S
O1138      C1148   1.283       .  A
O1139     Cd1140   1.935       .  S
Cd1140     O1142   2.044       .  S
O1141      C1148   1.284   1_545  A
C1143      O1147   1.262       .  A
C1143      C1175   1.460       .  S
C1144      C1443   1.522       .  S
C1149      O1150   1.273       .  A
O1151      C1167   1.277       .  A
O1151     Zn1157   2.026       .  S
C1152      O1168   1.284       .  A
C1152      O1165   1.272       .  A
C1152      C1212   1.460       .  S
O1153      C1166   1.288       .  A
O1153     Cd1160   2.143       .  S
O1154      C1172   1.265       .  A
O1154     Cd1163   1.988       .  S
O1155      C1169   1.296       .  A
O1155     Cd2815   2.194       .  S
O1156      C1167   1.293       .  A
O1156     Cd1159   2.215       .  S
Zn1157     O1168   2.035       .  S
Zn1157     O1170   1.909       .  S
Zn1157     O1162   1.849       .  S
O1158      C1169   1.255       .  A
O1158     Cd2819   1.939       .  S
Cd1159     O2811   2.194   1_455  S
Cd1159     O2817   2.122   1_455  S
Cd1159     O1162   1.963       .  S
Cd1160     O2820   2.055       .  S
Cd1160     O1173   2.075       .  S
Cd1160     O1162   1.960       .  S
O1161      C1171   1.283       .  A
O1161     Cd2815   2.122       .  S
O1162     Cd1163   1.936       .  S
Cd1163     O2814   1.939       .  S
Cd1163     O1165   2.044       .  S
O1164      C1171   1.284       .  A
O1164     Cd2816   2.055       .  S
C1166      O1170   1.262       .  A
C1167      C1305   1.523       .  S
C1172      O1173   1.273       .  A
C1172      C2851   1.453   1_455  S
O1174      C1190   1.277       .  A
O1174     Zn1180   2.026       .  S
C1175      O1191   1.284       .  A
C1175      O1188   1.272       .  A
O1176      C1189   1.288       .  A
O1176     Cd1183   2.143       .  S
O1177      C1195   1.265       .  A
O1177     Cd1186   1.988       .  S
O1178      C1192   1.296       .  A
O1178     Cd2838   2.194   1_455  S
O1179      C1190   1.293       .  A
O1179     Cd1182   2.216       .  S
Zn1180     O1191   2.034       .  S
Zn1180     O1193   1.910       .  S
Zn1180     O1185   1.850       .  S
O1181      C1192   1.255   1_655  A
O1181     Cd2842   1.939       .  S
Cd1182     O2834   2.194       .  S
Cd1182     O2840   2.120       .  S
Cd1182     O1185   1.963       .  S
Cd1183     O2843   2.054       .  S
Cd1183     O1196   2.075       .  S
Cd1183     O1185   1.960       .  S
O1184      C1194   1.282       .  A
O1184     Cd2838   2.120   1_455  S
O1185     Cd1186   1.936       .  S
Cd1186     O2837   1.939       .  S
Cd1186     O1188   2.043       .  S
O1187      C1194   1.284   1_655  A
O1187     Cd2839   2.054       .  S
C1189      O1193   1.262       .  A
C1189      C1221   1.460       .  S
C1190      C1397   1.523       .  S
C1195      O1196   1.273       .  A
C1195      C2828   1.453       .  S
O1197      C1213   1.277       .  A
O1197     Zn1203   2.026       .  S
C1198      O1214   1.284       .  A
C1198      O1211   1.272       .  A
O1199      C1212   1.288       .  A
O1199     Cd1206   2.144       .  S
O1200      C1218   1.265       .  A
O1200     Cd1209   1.987       .  S
O1201      C1215   1.296       .  A
O1201     Cd1205   2.192       .  S
O1202      C1213   1.293       .  A
O1202     Cd1205   2.214       .  S
Zn1203     O1214   2.035       .  S
Zn1203     O1216   1.910       .  S
Zn1203     O1208   1.849       .  S
O1204      C1215   1.255       .  A
O1204     Cd1209   1.938       .  S
Cd1205     O1207   2.120       .  S
Cd1205     O1208   1.963       .  S
Cd1206     O1210   2.056       .  S
Cd1206     O1219   2.075       .  S
Cd1206     O1208   1.960       .  S
O1207      C1217   1.282       .  A
O1208     Cd1209   1.935       .  S
Cd1209     O1211   2.044       .  S
O1210      C1217   1.284       .  A
C1212      O1216   1.262       .  A
C1213      C1259   1.523       .  S
C1218      O1219   1.273       .  A
C1218      C1241   1.453       .  S
O1220      C1236   1.277       .  A
O1220     Zn1226   2.026       .  S
C1221      O1237   1.284       .  A
C1221      O1234   1.272       .  A
O1222      C1235   1.288       .  A
O1222     Cd1229   2.144       .  S
O1223      C1241   1.265       .  A
O1223     Cd1232   1.988       .  S
O1224      C1238   1.295       .  A
O1224     Cd1228   2.192       .  S
O1225      C1236   1.293       .  A
O1225     Cd1228   2.214       .  S
Zn1226     O1237   2.035       .  S
Zn1226     O1239   1.910       .  S
Zn1226     O1231   1.849       .  S
O1227      C1238   1.255       .  A
O1227     Cd1232   1.939       .  S
Cd1228     O1230   2.120       .  S
Cd1228     O1231   1.962       .  S
Cd1229     O1233   2.056       .  S
Cd1229     O1242   2.075       .  S
Cd1229     O1231   1.960       .  S
O1230      C1240   1.282       .  A
O1231     Cd1232   1.935       .  S
Cd1232     O1234   2.044       .  S
O1233      C1240   1.284       .  A
C1235      O1239   1.262       .  A
C1236      C1489   1.522       .  S
C1241      O1242   1.273       .  A
O1243      C1259   1.277       .  A
O1243     Zn1249   2.026       .  S
C1244      O1260   1.284       .  A
C1244      O1257   1.272       .  A
C1244      C1304   1.460       .  S
O1245      C1258   1.288       .  A
O1245     Cd1252   2.143       .  S
O1246      C1264   1.265       .  A
O1246     Cd1255   1.989       .  S
O1247      C1261   1.296       .  A
O1247     Cd1251   2.193       .  S
O1248      C1259   1.293       .  A
O1248     Cd1251   2.214       .  S
Zn1249     O1260   2.035       .  S
Zn1249     O1262   1.909       .  S
Zn1249     O1254   1.850       .  S
O1250      C1261   1.255       .  A
O1250     Cd1255   1.939       .  S
Cd1251     O1253   2.121       .  S
Cd1251     O1254   1.963       .  S
Cd1252     O1256   2.055       .  S
Cd1252     O1265   2.075       .  S
Cd1252     O1254   1.960       .  S
O1253      C1263   1.283       .  A
O1254     Cd1255   1.936       .  S
Cd1255     O1257   2.044       .  S
O1256      C1263   1.284       .  A
C1258      O1262   1.262       .  A
C1258      C1336   1.459       .  S
C1264      O1265   1.273       .  A
C1264      C1287   1.453       .  S
O1266      C1282   1.277       .  A
O1266     Zn1272   2.026       .  S
C1267      O2939   1.284       .  A
C1267      O1280   1.272       .  A
C1267      C1373   1.460       .  S
O1268      C1281   1.288       .  A
O1268     Cd1275   2.144       .  S
O1269      C1287   1.265       .  A
O1269     Cd1278   1.988       .  S
O1270      C1284   1.296       .  A
O1270     Cd1274   2.195       .  S
O1271      C1282   1.293       .  A
O1271     Cd1274   2.216       .  S
Zn1272     O1283   2.034       .  S
Zn1272     O1285   1.910       .  S
Zn1272     O1277   1.850       .  S
O1273      C1284   1.255       .  A
O1273     Cd1278   1.939       .  S
Cd1274     O1276   2.120       .  S
Cd1274     O1277   1.963       .  S
Cd1275     O1279   2.054       .  S
Cd1275     O1288   2.076       .  S
Cd1275     O1277   1.960       .  S
O1276      C1286   1.282       .  A
O1277     Cd1278   1.936       .  S
Cd1278     O2936   2.043       .  S
O1279      C1286   1.284       .  A
O1280     Cd2934   2.043       .  S
C1281      O1285   1.262       .  A
C1281      C1313   1.460       .  S
C1282      C1512   1.523       .  S
O1283      C2923   1.284   1_455  A
C1284      C1655   1.463       .  S
C1286      C1537   1.461       .  S
C1287      O1288   1.273       .  A
O1289      C1305   1.277       .  A
O1289     Zn1295   2.026       .  S
C1290      O1306   1.284       .  A
C1290      O1303   1.272       .  A
C1290      C1350   1.460       .  S
O1291      C1304   1.288       .  A
O1291     Cd1298   2.144       .  S
O1292      C1310   1.265       .  A
O1292     Cd1301   1.987       .  S
O1293      C1307   1.295       .  A
O1293     Cd1297   2.192       .  S
O1294      C1305   1.293       .  A
O1294     Cd1297   2.214       .  S
Zn1295     O1306   2.035       .  S
Zn1295     O1308   1.910       .  S
Zn1295     O1300   1.849       .  S
O1296      C1307   1.255       .  A
O1296     Cd1301   1.939       .  S
Cd1297     O1299   2.120       .  S
Cd1297     O1300   1.963       .  S
Cd1298     O1302   2.056       .  S
Cd1298     O1311   2.075       .  S
Cd1298     O1300   1.960       .  S
O1299      C2965   1.282   1_455  A
O1300     Cd1301   1.935       .  S
Cd1301     O1303   2.044       .  S
O1302      C2965   1.284   1_455  A
C1304      O1308   1.262       .  A
C1309      O2955   1.282       .  A
C1309      O2958   1.284       .  A
C1310      O1311   1.273       .  A
C1310      C1333   1.453       .  S
O1312      C1328   1.277       .  A
O1312     Zn1318   2.026       .  S
C1313      O1329   1.284       .  A
C1313      O1326   1.272       .  A
O1314      C1327   1.288       .  A
O1314     Cd2977   2.144       .  S
O1315      C1333   1.265       .  A
O1315     Cd1324   1.988       .  S
O1316      C1330   1.295       .  A
O1316     Cd1320   2.192       .  S
O1317      C1328   1.293       .  A
O1317     Cd1320   2.214       .  S
Zn1318     O2987   1.910   1_455  S
Zn1318     O1323   1.849       .  S
O1319      C1330   1.255       .  A
O1319     Cd1324   1.939       .  S
Cd1320     O1322   2.120       .  S
Cd1320     O1323   1.963       .  S
Cd1321     O2970   2.144   1_455  S
Cd1321     O1325   2.056   1_455  S
Cd1321     O1334   2.075       .  S
Cd1321     O1323   1.960       .  S
O1322      C1332   1.282       .  A
O1323     Cd1324   1.936       .  S
O1325      C1332   1.284   1_655  A
C1327      O1331   1.262       .  A
C1327      C1359   1.460       .  S
C1328      C3076   1.523   1_455  S
C1330      C1609   1.462       .  S
O1331     Zn2974   1.910       .  S
C1332      C1652   1.462       .  S
C1333      O1334   1.273       .  A
O1335      C1351   1.277       .  A
O1335     Zn1341   2.027       .  S
C1336      O1352   1.284       .  A
C1336      O1349   1.272       .  A
O1337      C1350   1.288       .  A
O1337     Cd1344   2.144       .  S
O1338      C1356   1.265       .  A
O1338     Cd1347   1.988       .  S
O1339      C1353   1.296       .  A
O1339     Cd1343   2.195       .  S
O1340      C1351   1.293       .  A
O1340     Cd1343   2.216       .  S
Zn1341     O1352   2.034       .  S
Zn1341     O1354   1.910       .  S
Zn1341     O1346   1.850       .  S
O1342      C1353   1.255       .  A
O1342     Cd1347   1.938       .  S
Cd1343     O1345   2.121       .  S
Cd1343     O1346   1.963       .  S
Cd1344     O1357   2.076       .  S
Cd1344     O1346   1.960       .  S
O1346     Cd1347   1.936       .  S
Cd1347     O1349   2.043       .  S
O1348      C1355   1.284       .  A
C1350      O1354   1.262       .  A
C1356      O1357   1.273       .  A
C1356      C1379   1.453       .  S
O1358      C1374   1.277       .  A
O1358     Zn1364   2.025       .  S
C1359      O1375   1.284       .  A
C1359      O1372   1.272       .  A
O1360      C1373   1.288       .  A
O1361      C1379   1.265       .  A
O1361     Cd1370   1.988       .  S
O1362      C1376   1.296       .  A
O1362     Cd1366   2.193       .  S
O1363      C1374   1.293       .  A
O1363     Cd1366   2.214       .  S
Zn1364     O1375   2.035       .  S
Zn1364     O1369   1.849       .  S
O1365      C1376   1.255       .  A
O1365     Cd1370   1.939       .  S
Cd1366     O1368   2.122       .  S
Cd1366     O1369   1.962       .  S
Cd1367     O1371   2.056       .  S
Cd1367     O1380   2.075   1_545  S
Cd1367     O1369   1.960   1_545  S
O1368      C1378   1.283       .  A
O1369     Cd1370   1.935       .  S
Cd1370     O1372   2.044       .  S
O1371      C1378   1.284   1_545  A
C1373      O1377   1.262       .  A
C1376      C1540   1.462       .  S
C1378      C1606   1.463   1_565  S
C1379      O1380   1.273       .  A
O1381      C1397   1.277       .  A
O1381     Zn1387   2.026       .  S
C1382      O1398   1.284   1_556  A
C1382      O1395   1.272       .  A
C1382      C1488   1.459       .  S
O1383      C1396   1.288       .  A
O1383     Cd1390   2.143       .  S
O1384      C1402   1.265       .  A
O1384     Cd1393   1.988       .  S
O1385      C1399   1.296       .  A
O1385     Cd1389   2.195       .  S
O1386      C1397   1.293       .  A
O1386     Cd1389   2.216       .  S
Zn1387     O1398   2.034       .  S
Zn1387     O1400   1.910       .  S
Zn1387     O1392   1.849   1_554  S
O1388      C1399   1.255   1_556  A
O1388     Cd1393   1.938       .  S
Cd1389     O1391   2.120       .  S
Cd1389     O1392   1.963   1_554  S
Cd1390     O1394   2.054       .  S
Cd1390     O1403   2.075       .  S
Cd1390     O1392   1.960       .  S
O1391      C3057   1.282   1_554  A
O1392     Cd1393   1.936       .  S
Cd1393     O1395   2.043       .  S
O1394      C3057   1.284       .  A
C1396      O1400   1.262   1_556  A
C1396      C1428   1.460       .  S
C1401      O3047   1.282   1_456  A
C1401      O3050   1.284   1_455  A
C1402      O1403   1.273       .  A
C1402      C1425   1.453       .  S
O1404      C1420   1.277       .  A
O1404     Zn1410   2.026       .  S
C1405      O1421   1.284       .  A
C1405      O1418   1.272       .  A
C1405      C1465   1.460       .  S
O1406      C1419   1.288       .  A
O1406     Cd3069   2.143       .  S
O1407      C1425   1.265       .  A
O1407     Cd1416   1.988       .  S
O1408      C1422   1.296       .  A
O1408     Cd1412   2.193       .  S
O1409      C1420   1.293       .  A
O1409     Cd1412   2.214       .  S
Zn1410     O1421   2.035       .  S
Zn1410     O3079   1.909       .  S
Zn1410     O1415   1.849       .  S
O1411      C1422   1.255       .  A
O1411     Cd1416   1.939       .  S
Cd1412     O1414   2.122       .  S
Cd1412     O1415   1.962       .  S
Cd1413     O3062   2.143       .  S
Cd1413     O1417   2.055       .  S
Cd1413     O1426   2.075       .  S
Cd1413     O1415   1.960       .  S
O1414      C1424   1.283       .  A
O1415     Cd1416   1.936       .  S
Cd1416     O1418   2.043       .  S
O1417      C1424   1.284       .  A
C1419      O1423   1.262       .  A
C1419      C1497   1.459   1_565  S
C1420      C2984   1.523       .  S
C1422      C1563   1.462       .  S
O1423     Zn3066   1.909   1_455  S
C1424      C1629   1.463       .  S
C1425      O1426   1.273       .  A
O1427      C1443   1.277       .  A
O1427     Zn1433   2.026       .  S
C1428      O1444   1.284   1_556  A
C1428      O1441   1.272       .  A
O1429      C1442   1.288       .  A
O1429     Cd1436   2.144       .  S
O1430      C1448   1.265       .  A
O1430     Cd1439   1.987       .  S
O1431      C1445   1.295       .  A
O1431     Cd1435   2.192       .  S
O1432      C1443   1.293       .  A
O1432     Cd1435   2.213       .  S
Zn1433     O1444   2.035       .  S
Zn1433     O1446   1.910       .  S
Zn1433     O1438   1.849   1_554  S
O1434      C1445   1.255   1_556  A
O1434     Cd1439   1.939       .  S
Cd1435     O1437   2.120       .  S
Cd1435     O1438   1.962   1_554  S
Cd1436     O1440   2.056       .  S
Cd1436     O1449   2.075       .  S
Cd1436     O1438   1.960       .  S
O1437      C1447   1.282   1_554  A
O1438     Cd1439   1.935       .  S
Cd1439     O1441   2.044       .  S
O1440      C1447   1.284       .  A
C1442      O1446   1.262   1_556  A
C1442      C1474   1.460       .  S
C1448      O1449   1.273       .  A
C1448      C1471   1.453       .  S
O1450      C1466   1.277       .  A
O1450     Zn1456   2.026       .  S
C1451      O3123   1.284   1_455  A
C1451      O1464   1.272   1_455  A
C1451      C1511   1.460       .  S
O1452      C1465   1.288       .  A
O1453      C1471   1.265       .  A
O1453     Cd1462   1.987       .  S
O1454      C1468   1.296       .  A
O1454     Cd1458   2.192       .  S
O1455      C1466   1.293       .  A
O1455     Cd1458   2.214       .  S
Zn1456     O1467   2.035       .  S
Zn1456     O1461   1.849       .  S
O1457      C1468   1.255       .  A
O1457     Cd1462   1.939       .  S
Cd1458     O1460   2.120       .  S
Cd1458     O1461   1.963       .  S
Cd1459     O1463   2.056       .  S
Cd1459     O1472   2.075       .  S
Cd1459     O1461   1.960       .  S
O1460      C1470   1.282       .  A
O1461     Cd1462   1.935       .  S
Cd1462     O3120   2.044       .  S
O1463      C1470   1.284       .  A
O1464     Cd3118   2.044       .  S
C1465      O1469   1.262       .  A
O1467      C3107   1.284       .  A
C1468      C1632   1.462       .  S
C1470      C1583   1.462       .  S
C1471      O1472   1.273       .  A
O1473      C1489   1.277       .  A
O1473     Zn1479   2.025       .  S
C1474      O1490   1.284   1_556  A
C1474      O1487   1.272       .  A
O1475      C1488   1.288       .  A
O1475     Cd1482   2.143       .  S
O1476      C1494   1.265       .  A
O1476     Cd1485   1.988       .  S
O1477      C1491   1.296       .  A
O1477     Cd1481   2.193       .  S
O1478      C1489   1.293       .  A
O1478     Cd1481   2.214       .  S
Zn1479     O1490   2.035       .  S
Zn1479     O1492   1.909       .  S
Zn1479     O1484   1.849   1_554  S
O1480      C1491   1.255   1_556  A
O1480     Cd1485   1.939       .  S
Cd1481     O1483   2.122       .  S
Cd1481     O1484   1.962   1_554  S
Cd1482     O1486   2.055       .  S
Cd1482     O1495   2.075       .  S
Cd1482     O1484   1.960       .  S
O1483      C1493   1.283   1_554  A
O1484     Cd1485   1.936       .  S
Cd1485     O1487   2.044       .  S
O1486      C1493   1.284       .  A
C1488      O1492   1.262   1_556  A
C1494      O1495   1.273       .  A
C1494      C1517   1.453       .  S
O1496      C1512   1.277       .  A
O1496     Zn1502   2.026       .  S
C1497      O1510   1.272       .  A
O1498      C1511   1.288       .  A
O1498     Cd1505   2.144       .  S
O1499      C1517   1.265       .  A
O1499     Cd1508   1.988       .  S
O1500      C1514   1.296       .  A
O1500     Cd1504   2.194       .  S
O1501      C1512   1.293       .  A
O1501     Cd1504   2.215       .  S
Zn1502     O1513   2.034       .  S
Zn1502     O1515   1.910       .  S
Zn1502     O1507   1.849       .  S
O1503      C1514   1.255       .  A
O1503     Cd1508   1.939       .  S
Cd1504     O1506   2.120       .  S
Cd1504     O1507   1.963       .  S
Cd1505     O1509   2.054       .  S
Cd1505     O1518   2.076       .  S
Cd1505     O1507   1.960       .  S
O1506      C1516   1.282       .  A
O1507     Cd1508   1.936       .  S
O1509      C1516   1.284       .  A
C1511      O1515   1.262       .  A
C1514      C1586   1.463       .  S
C1516      C1560   1.462       .  S
C1517      O1518   1.273       .  A
O1519      C1535   1.284       .  A
O1519     Zn1525   2.035       .  S
C1520      O1536   1.277       .  A
C1520      O1533   1.293       .  A
O1521      C1534   1.288       .  A
O1521     Cd1528   2.144       .  S
O1522      C1540   1.282       .  A
O1522     Cd1531   2.120       .  S
O1523      C1537   1.255       .  A
O1523     Cd1527   1.939       .  S
O1524      C1535   1.272       .  A
O1524     Cd1527   2.044       .  S
Zn1525     O1536   2.026       .  S
Zn1525     O1538   1.909       .  S
Zn1525     O1530   1.849       .  S
O1526      C1537   1.295       .  A
O1526     Cd1531   2.192       .  S
Cd1527     O1529   1.987       .  S
Cd1527     O1530   1.936       .  S
Cd1528     O1532   2.075       .  S
Cd1528     O1541   2.056       .  S
Cd1528     O1530   1.960       .  S
O1529      C1539   1.265       .  A
O1530     Cd1531   1.963       .  S
Cd1531     O1533   2.214       .  S
O1532      C1539   1.273       .  A
C1534      O1538   1.262       .  A
C1534      C1650   1.460       .  S
C1535      C1603   1.460       .  S
C1539      C1562   1.453       .  S
C1540      O1541   1.284       .  A
O1542      C1558   1.284       .  A
O1542     Zn1548   2.035       .  S
C1543      O1559   1.277       .  A
C1543      O1556   1.293       .  A
O1544      C1557   1.288       .  A
O1544     Cd1551   2.143       .  S
O1545      C1563   1.282       .  A
O1545     Cd1554   2.120       .  S
O1546      C1560   1.255       .  A
O1546     Cd1550   1.939       .  S
O1547      C1558   1.272       .  A
O1547     Cd1550   2.044       .  S
Zn1548     O1559   2.026       .  S
Zn1548     O1561   1.910       .  S
Zn1548     O1553   1.849       .  S
O1549      C1560   1.295       .  A
O1549     Cd1554   2.192       .  S
Cd1550     O1552   1.988       .  S
Cd1550     O1553   1.935       .  S
Cd1551     O1555   2.075       .  S
Cd1551     O1564   2.056       .  S
Cd1551     O1553   1.960       .  S
O1552      C1562   1.265       .  A
O1553     Cd1554   1.963       .  S
Cd1554     O1556   2.213       .  S
O1555      C1562   1.273       .  A
C1557      O1561   1.262       .  A
C1557      C1581   1.460       .  S
C1558      C1626   1.460       .  S
C1563      O1564   1.284       .  A
O1565      C1581   1.284       .  A
O1565     Zn1571   2.034       .  S
C1566      O1582   1.277       .  A
C1566      O1579   1.293       .  A
O1567      C1580   1.288       .  A
O1567     Cd1574   2.143       .  S
O1568      C1586   1.283       .  A
O1568     Cd1577   2.121       .  S
O1569      C1583   1.255       .  A
O1570      C1581   1.272       .  A
O1570     Cd1573   2.044       .  S
Zn1571     O1582   2.025       .  S
Zn1571     O1584   1.909       .  S
Zn1571     O1576   1.849       .  S
O1572      C1583   1.296       .  A
O1572     Cd1577   2.193       .  S
Cd1573     O1575   1.988       .  S
Cd1573     O1576   1.936       .  S
Cd1574     O1578   2.075       .  S
Cd1574     O1576   1.960       .  S
O1575      C1585   1.265       .  A
O1578      C1585   1.273       .  A
C1580      O1584   1.262       .  A
C1580      C1627   1.459       .  S
C1586      O1587   1.284       .  A
O1588      C1604   1.284       .  A
O1588     Zn1594   2.034       .  S
C1589      O1605   1.277       .  A
C1589      O1602   1.293       .  A
O1590      C1603   1.288       .  A
O1590     Cd1597   2.143       .  S
O1591      C1609   1.282       .  A
O1592      C1606   1.255       .  A
O1593      C1604   1.272       .  A
O1593     Cd1596   2.043       .  S
Zn1594     O1605   2.027       .  S
Zn1594     O1607   1.910       .  S
Zn1594     O1599   1.850       .  S
O1595      C1606   1.296   1_565  A
Cd1596     O1598   1.988       .  S
Cd1596     O1599   1.936       .  S
Cd1597     O1601   2.075       .  S
Cd1597     O1610   2.054       .  S
Cd1597     O1599   1.960       .  S
O1598      C1608   1.265       .  A
O1599     Cd1600   1.963       .  S
Cd1600     O1602   2.216       .  S
O1601      C1608   1.273       .  A
C1603      O1607   1.262       .  A
C1604      C1649   1.460       .  S
O1611      C1627   1.284       .  A
O1611     Zn1617   2.034       .  S
C1612      O1628   1.277       .  A
C1612      O1625   1.293       .  A
O1613      C1626   1.288       .  A
O1613     Cd1620   2.143       .  S
O1614      C1632   1.282       .  A
O1614     Cd3279   2.121       .  S
O1615      C1629   1.255       .  A
O1615     Cd3275   1.938       .  S
O1616      C1627   1.272       .  A
O1616     Cd1619   2.043       .  S
Zn1617     O1628   2.026       .  S
Zn1617     O1630   1.910       .  S
Zn1617     O1622   1.850       .  S
O1618      C1629   1.296       .  A
O1618     Cd3279   2.195       .  S
Cd1619     O3271   1.938       .  S
Cd1619     O1621   1.988       .  S
Cd1619     O1622   1.936       .  S
Cd1620     O1624   2.075       .  S
Cd1620     O3289   2.054       .  S
Cd1620     O1622   1.960       .  S
O1621      C1631   1.265       .  A
O1622     Cd1623   1.963       .  S
Cd1623     O3270   2.121   1_455  S
Cd1623     O3274   2.195   1_455  S
Cd1623     O1625   2.216       .  S
O1624      C1631   1.273       .  A
C1626      O1630   1.262       .  A
C1631      C3310   1.453   1_455  S
C1632      O1633   1.284       .  A
O1633     Cd3276   2.054       .  S
O1634      C1650   1.284       .  A
O1634     Zn1640   2.035       .  S
C1635      O1651   1.277       .  A
C1635      O1648   1.293       .  A
O1636      C1649   1.288       .  A
O1636     Cd1643   2.143       .  S
O1637      C1655   1.283       .  A
O1637     Cd1646   2.122   1_455  S
O1638      C1652   1.255   1_655  A
O1638     Cd3298   1.939       .  S
O1639      C1650   1.272       .  A
O1639     Cd1642   2.043       .  S
Zn1640     O1651   2.026       .  S
Zn1640     O1653   1.910       .  S
Zn1640     O1645   1.850       .  S
O1641      C1652   1.296       .  A
O1641     Cd1646   2.193   1_455  S
Cd1642     O3294   1.939       .  S
Cd1642     O1644   1.988       .  S
Cd1642     O1645   1.936       .  S
Cd1643     O1647   2.075       .  S
Cd1643     O3312   2.055       .  S
Cd1643     O1645   1.960       .  S
O1644      C1654   1.265       .  A
O1645     Cd3302   1.962       .  S
Cd1646     O3304   2.214       .  S
Cd1646     O3301   1.962       .  S
O1647      C1654   1.273       .  A
O1648     Cd3302   2.214       .  S
C1649      O1653   1.262       .  A
C1654      C3287   1.453       .  S
C1655      O1656   1.284   1_455  A
O1656     Cd3299   2.055       .  S
O1657      C1673   1.284       .  A
O1657     Zn1663   2.035       .  S
C1658      O1674   1.277       .  A
C1658      O1671   1.293       .  A
C1658      C2463   1.522       .  S
O1659      C1672   1.288       .  A
O1659     Cd1666   2.144       .  S
O1660     Cd1669   2.120       .  S
O1661      C1675   1.255       .  A
O1661     Cd1665   1.939       .  S
O1662      C1673   1.272       .  A
O1662     Cd1665   2.044       .  S
Zn1663     O1674   2.026       .  S
Zn1663     O1676   1.909       .  S
Zn1663     O1668   1.849       .  S
O1664      C1675   1.296       .  A
O1664     Cd1669   2.192       .  S
Cd1665     O1667   1.988       .  S
Cd1665     O1668   1.936       .  S
Cd1666     O1670   2.076       .  S
Cd1666     O1679   2.056       .  S
Cd1666     O1668   1.960       .  S
O1667      C1677   1.265       .  A
O1668     Cd1669   1.963       .  S
Cd1669     O1671   2.214       .  S
O1670      C1677   1.273       .  A
C1672      O1676   1.262       .  A
C1672      C1742   1.460       .  S
C1673      C1787   1.460       .  S
C1675      C2183   1.462       .  S
C1677      C1700   1.453       .  S
C1678      C2089   1.462       .  S
O1680      C2524   1.284       .  A
O1680     Zn1686   2.035       .  S
C1681      O1697   1.277       .  A
C1681      O1694   1.293       .  A
O1682      C1695   1.288       .  A
O1683      C1701   1.282       .  A
O1683     Cd1692   2.120       .  S
O1684      C1698   1.255       .  A
O1684     Cd1688   1.939       .  S
O1685      C1696   1.272       .  A
O1685     Cd2516   2.044       .  S
Zn1686     O1697   2.026       .  S
Zn1686     O1691   1.849       .  S
O1687      C1698   1.296       .  A
O1687     Cd1692   2.192       .  S
Cd1688     O2513   2.044       .  S
Cd1688     O1690   1.988       .  S
Cd1688     O1691   1.935       .  S
Cd1689     O1693   2.075   1_455  S
Cd1689     O1702   2.056       .  S
Cd1689     O1691   1.960   1_455  S
O1690      C1700   1.265       .  A
O1691     Cd1692   1.963       .  S
Cd1692     O1694   2.214       .  S
O1693      C1700   1.273       .  A
C1695      O1699   1.262       .  A
C1695      C1765   1.460       .  S
C1696      O2508   1.284       .  A
C1696      C1718   1.460       .  S
C1698      C1953   1.462       .  S
C1701      O1702   1.284   1_655  A
C1701      C1997   1.462       .  S
O1703     Zn1709   2.034       .  S
C1704      O1720   1.277       .  A
C1704      O1717   1.293       .  A
C1704      C1865   1.523       .  S
O1705      C1718   1.288       .  A
O1705     Cd1712   2.143       .  S
O1706      C1724   1.282       .  A
O1706     Cd1715   2.121       .  S
O1707      C1721   1.255       .  A
O1707     Cd1711   1.938       .  S
O1708      C1719   1.272       .  A
Zn1709     O1720   2.027       .  S
Zn1709     O1722   1.910       .  S
Zn1709     O1714   1.850       .  S
O1710      C1721   1.296       .  A
O1710     Cd1715   2.194       .  S
Cd1711     O1713   1.988       .  S
Cd1711     O1714   1.936       .  S
Cd1712     O1716   2.076       .  S
Cd1712     O1725   2.054       .  S
Cd1712     O1714   1.960       .  S
O1713      C1723   1.265       .  A
O1714     Cd1715   1.963       .  S
Cd1715     O1717   2.216       .  S
O1716      C1723   1.273       .  A
C1718      O1722   1.262       .  A
C1719      C1764   1.459       .  S
C1721      C1999   1.462       .  S
C1723      C1746   1.453       .  S
C1724      O1725   1.284       .  A
C1724      C2043   1.462       .  S
O1726      C1742   1.284       .  A
O1726     Zn1732   2.035       .  S
C1727      O1743   1.277       .  A
C1727      O1740   1.293       .  A
C1727      C2348   1.523       .  S
O1728      C1741   1.288       .  A
O1728     Cd1735   2.143       .  S
O1729      C1747   1.283       .  A
O1729     Cd1738   2.122       .  S
O1730      C1744   1.255       .  A
O1730     Cd1734   1.939       .  S
O1731      C1742   1.272       .  A
O1731     Cd1734   2.044       .  S
Zn1732     O1743   2.026       .  S
Zn1732     O1745   1.910       .  S
Zn1732     O1737   1.849       .  S
O1733      C1744   1.296       .  A
O1733     Cd1738   2.193       .  S
Cd1734     O1736   1.988       .  S
Cd1734     O1737   1.936       .  S
Cd1735     O1739   2.075       .  S
Cd1735     O1748   2.055       .  S
Cd1735     O1737   1.960       .  S
O1736      C1746   1.265       .  A
O1737     Cd1738   1.963       .  S
Cd1738     O1740   2.214       .  S
O1739      C1746   1.273       .  A
C1741      O1745   1.262       .  A
C1741      C1788   1.459       .  S
C1744      C2137   1.462       .  S
C1747      O1748   1.284       .  A
C1747      C2181   1.462       .  S
O1749      C1765   1.284       .  A
O1749     Zn1755   2.035       .  S
C1750      O1766   1.277       .  A
C1750      O1763   1.293       .  A
C1750      C2739   1.522   1_545  S
O1751      C1764   1.288       .  A
O1751     Cd2586   2.143       .  S
O1752      C1770   1.283       .  A
O1752     Cd1761   2.122       .  S
O1753      C1767   1.255       .  A
O1753     Cd1757   1.939       .  S
O1754      C1765   1.272       .  A
O1754     Cd1757   2.044       .  S
Zn1755     O1766   2.026       .  S
Zn1755     O2596   1.909   1_545  S
Zn1755     O1760   1.849       .  S
O1756      C1767   1.296       .  A
O1756     Cd1761   2.193       .  S
Cd1757     O1759   1.989       .  S
Cd1757     O1760   1.936       .  S
Cd1758     O2579   2.143   1_545  S
Cd1758     O1762   2.075       .  S
Cd1758     O1771   2.055       .  S
Cd1758     O1760   1.960       .  S
O1759      C1769   1.265       .  A
O1760     Cd1761   1.963       .  S
Cd1761     O1763   2.214       .  S
O1762      C1769   1.273       .  A
C1764      O1768   1.262       .  A
C1767      C2045   1.462       .  S
O1768     Zn2583   1.909       .  S
C1769      C1792   1.453       .  S
C1770      O1771   1.284       .  A
C1770      C1951   1.462       .  S
O1772      C1788   1.284       .  A
O1772     Zn1778   2.034       .  S
C1773      O1789   1.277       .  A
C1773      O1786   1.293       .  A
C1773      C2417   1.523       .  S
O1774      C1787   1.288       .  A
O1774     Cd1781   2.144       .  S
O1775      C1793   1.282       .  A
O1775     Cd1784   2.120       .  S
O1776      C1790   1.255       .  A
O1776     Cd1780   1.939       .  S
O1777      C1788   1.272       .  A
O1777     Cd1780   2.043       .  S
Zn1778     O1789   2.026       .  S
Zn1778     O1791   1.910       .  S
Zn1778     O1783   1.850       .  S
O1779      C1790   1.296       .  A
O1779     Cd1784   2.194       .  S
Cd1780     O1782   1.988       .  S
Cd1780     O1783   1.936       .  S
Cd1781     O1785   2.076       .  S
Cd1781     O1794   2.054       .  S
Cd1781     O1783   1.960       .  S
O1782      C1792   1.265       .  A
O1783     Cd1784   1.963       .  S
Cd1784     O1786   2.216       .  S
O1785      C1792   1.273       .  A
C1787      O1791   1.262       .  A
C1790      C2091   1.462       .  S
C1793      O1794   1.284       .  A
C1793      C2963   1.462   1_545  S
O1795      C1811   1.284   1_556  A
O1795     Zn1801   2.034       .  S
C1796      O1812   1.277       .  A
C1796      O1809   1.293       .  A
C1796      C2440   1.523       .  S
O1797      C1810   1.288       .  A
O1797     Cd1804   2.144       .  S
O1798     Cd1807   2.120       .  S
O1799      C1813   1.255   1_554  A
O1799     Cd1803   1.939       .  S
O1800      C1811   1.272       .  A
O1800     Cd1803   2.043       .  S
Zn1801     O1812   2.026       .  S
Zn1801     O1814   1.910       .  S
Zn1801     O1806   1.850   1_556  S
O1802      C1813   1.296       .  A
O1802     Cd1807   2.194       .  S
Cd1803     O1805   1.988       .  S
Cd1803     O1806   1.936       .  S
Cd1804     O1808   2.076       .  S
Cd1804     O1817   2.054       .  S
Cd1804     O1806   1.960       .  S
O1805      C1815   1.265       .  A
O1806     Cd1807   1.963   1_554  S
Cd1807     O1809   2.216       .  S
O1808      C1815   1.273       .  A
C1810      O1814   1.262   1_554  A
C1810      C1903   1.460       .  S
C1811      C1856   1.459       .  S
C1813      C2321   1.463       .  S
C1815      C1838   1.453       .  S
C1816      C2273   1.462       .  S
O1818      C1834   1.284       .  A
O1818     Zn1824   2.035       .  S
C1819      O1835   1.277       .  A
C1819      O1832   1.293       .  A
O1820      C1833   1.288       .  A
O1821      C1839   1.283       .  A
O1821     Cd1830   2.122       .  S
O1822      C1836   1.255       .  A
O1822     Cd1826   1.939       .  S
O1823      C1834   1.272       .  A
O1823     Cd1826   2.044       .  S
Zn1824     O1835   2.026       .  S
Zn1824     O1829   1.849       .  S
O1825      C1836   1.296       .  A
O1825     Cd1830   2.194       .  S
Cd1826     O1828   1.989       .  S
Cd1826     O1829   1.935       .  S
Cd1827     O1831   2.075       .  S
Cd1827     O1840   2.055       .  S
Cd1827     O1829   1.960       .  S
O1828      C1838   1.265       .  A
O1829     Cd1830   1.962       .  S
Cd1830     O1832   2.214       .  S
O1831      C1838   1.273       .  A
C1833      O1837   1.262       .  A
C1833      C1880   1.459       .  S
C1834      C1925   1.460       .  S
C1836      C2068   1.462       .  S
C1839      O1840   1.284       .  A
C1839      C2020   1.462       .  S
O1841      C1857   1.284   1_556  A
O1841     Zn1847   2.035       .  S
C1842      O1858   1.277       .  A
C1842      O1855   1.293       .  A
C1842      C2371   1.522       .  S
O1843      C1856   1.288       .  A
O1843     Cd1850   2.143       .  S
O1844      C1862   1.283   1_556  A
O1844     Cd1853   2.122       .  S
O1845      C1859   1.255   1_554  A
O1845     Cd1849   1.939       .  S
O1846      C1857   1.272       .  A
O1846     Cd1849   2.044       .  S
Zn1847     O1858   2.025       .  S
Zn1847     O1860   1.909       .  S
Zn1847     O1852   1.849   1_556  S
O1848      C1859   1.296       .  A
O1848     Cd1853   2.193       .  S
Cd1849     O1851   1.988       .  S
Cd1849     O1852   1.935       .  S
Cd1850     O1854   2.075       .  S
Cd1850     O1863   2.055       .  S
Cd1850     O1852   1.960       .  S
O1851      C1861   1.265       .  A
O1852     Cd1853   1.962   1_554  S
Cd1853     O1855   2.214       .  S
O1854      C1861   1.273       .  A
C1856      O1860   1.262   1_554  A
C1857      C1902   1.460       .  S
C1859      C3103   1.462       .  S
C1861      C1884   1.453       .  S
C1862      O1863   1.284       .  A
C1862      C2227   1.462       .  S
O1864      C1880   1.284       .  A
O1864     Zn2698   2.034   1_545  S
C1865      O1881   1.277       .  A
C1865      O1878   1.293       .  A
O1866      C1879   1.288       .  A
O1866     Cd1873   2.143       .  S
O1867      C1885   1.282       .  A
O1867     Cd1876   2.120       .  S
O1868      C1882   1.255       .  A
O1868     Cd1872   1.938       .  S
O1869      C1880   1.272       .  A
O1869     Cd2700   2.043   1_545  S
Zn1870     O2692   2.034       .  S
Zn1870     O1881   2.027       .  S
Zn1870     O1883   1.910       .  S
Zn1870     O1875   1.849       .  S
O1871      C1882   1.296       .  A
O1871     Cd1876   2.194       .  S
Cd1872     O2697   2.043       .  S
Cd1872     O1874   1.988       .  S
Cd1872     O1875   1.936       .  S
Cd1873     O1877   2.075       .  S
Cd1873     O1886   2.054       .  S
Cd1873     O1875   1.960       .  S
O1874      C1884   1.265       .  A
O1875     Cd1876   1.963       .  S
Cd1876     O1878   2.216       .  S
O1877      C1884   1.273       .  A
C1879      O1883   1.262       .  A
C1879      C1926   1.460       .  S
C1882      C1976   1.462       .  S
C1885      O1886   1.284       .  A
C1885      C2066   1.462       .  S
O1887      C1903   1.284   1_556  A
O1887     Zn1893   2.035       .  S
C1888      O1904   1.277       .  A
C1888      O1901   1.293       .  A
C1888      C2394   1.522       .  S
O1889      C1902   1.288       .  A
O1889     Cd1896   2.144       .  S
O1890      C2736   1.282   1_556  A
O1890     Cd1899   2.120       .  S
O1891      C1905   1.255   1_554  A
O1891     Cd1895   1.939       .  S
O1892      C1903   1.272       .  A
O1892     Cd1895   2.044       .  S
Zn1893     O1904   2.026       .  S
Zn1893     O1906   1.910       .  S
Zn1893     O1898   1.849   1_556  S
O1894      C1905   1.295       .  A
O1894     Cd1899   2.192       .  S
Cd1895     O1897   1.987       .  S
Cd1895     O1898   1.935       .  S
Cd1896     O1900   2.075       .  S
Cd1896     O2737   2.056       .  S
Cd1896     O1898   1.960       .  S
O1897      C1907   1.265       .  A
O1898     Cd1899   1.963   1_554  S
Cd1899     O1901   2.213       .  S
O1900      C1907   1.273       .  A
C1902      O1906   1.262   1_554  A
C1905      C2229   1.462       .  S
C1907      C1930   1.453       .  S
C1908      O2718   1.282   1_544  A
C1908      O1909   1.284       .  A
C1908      C2319   1.462       .  S
O1909     Cd2724   2.056   1_545  S
O1910     Zn1916   2.035       .  S
C1911      O1927   1.277       .  A
C1911      O1924   1.293       .  A
C1911      C2578   1.522       .  S
O1912      C1925   1.288       .  A
O1912     Cd2747   2.144       .  S
O1913      C1931   1.282       .  A
O1913     Cd1922   2.120       .  S
O1914      C1928   1.255       .  A
O1914     Cd1918   1.939       .  S
O1915      C1926   1.272   1_455  A
Zn1916     O1927   2.026       .  S
Zn1916     O2757   1.910       .  S
Zn1916     O1921   1.849       .  S
O1917      C1928   1.295       .  A
O1917     Cd1922   2.192       .  S
Cd1918     O1920   1.987       .  S
Cd1918     O1921   1.935       .  S
Cd1919     O2740   2.144       .  S
Cd1919     O1923   2.075       .  S
Cd1919     O1932   2.056       .  S
Cd1919     O1921   1.960       .  S
O1920      C1930   1.265       .  A
O1921     Cd1922   1.962       .  S
Cd1922     O1924   2.214       .  S
O1923      C1930   1.273       .  A
C1925      O1929   1.262       .  A
C1928      C2022   1.462       .  S
O1929     Zn2744   1.910   1_545  S
C1931      O1932   1.284       .  A
C1931      C1974   1.462       .  S
O1933      C1949   1.277       .  A
O1933     Zn1939   2.027       .  S
C1934      O1950   1.284       .  A
C1934      O1947   1.272       .  A
C1934      C1994   1.459       .  S
O1935      C1948   1.288       .  A
O1935     Cd1942   2.144       .  S
O1936      C1954   1.265       .  A
O1936     Cd1945   1.988       .  S
O1937      C1951   1.296       .  A
O1937     Cd1941   2.194       .  S
O1938      C1949   1.293       .  A
O1938     Cd2769   2.216       .  S
Zn1939     O1950   2.034       .  S
Zn1939     O1952   1.910       .  S
Zn1939     O1944   1.850       .  S
O1940      C1951   1.255   1_565  A
O1940     Cd2773   1.939       .  S
Cd1941     O2766   2.216   1_545  S
Cd1941     O1943   2.120       .  S
Cd1941     O2772   1.963   1_545  S
Cd1942     O2774   2.054       .  S
Cd1942     O1955   2.076       .  S
Cd1942     O1944   1.960       .  S
O1943      C1953   1.282       .  A
O1944     Cd2769   1.963       .  S
O1944     Cd1945   1.936       .  S
Cd1945     O2768   1.939       .  S
Cd1945     O1947   2.043       .  S
O1946      C1953   1.284   1_565  A
O1946     Cd2770   2.054       .  S
C1948      O1952   1.262       .  A
C1948      C2026   1.460       .  S
C1949      C2179   1.523       .  S
C1954      O1955   1.273       .  A
C1954      C2805   1.453       .  S
O1956      C1972   1.277       .  A
O1956     Zn1962   2.025       .  S
C1957      O1973   1.284       .  A
C1957      O1970   1.272       .  A
C1957      C2063   1.460       .  S
O1958      C1971   1.288       .  A
O1958     Cd1965   2.143       .  S
O1959      C1977   1.265       .  A
O1959     Cd1968   1.989       .  S
O1960      C1974   1.296       .  A
O1960     Cd2792   2.194       .  S
O1961      C1972   1.293       .  A
O1961     Cd1964   2.214       .  S
Zn1962     O1973   2.035       .  S
Zn1962     O1975   1.909       .  S
Zn1962     O1967   1.849       .  S
O1963      C1974   1.255       .  A
O1963     Cd2796   1.939       .  S
Cd1964     O2788   2.194   1_545  S
Cd1964     O2794   2.122   1_545  S
Cd1964     O1967   1.963       .  S
Cd1965     O2797   2.055       .  S
Cd1965     O1978   2.075       .  S
Cd1965     O1967   1.960       .  S
O1966      C1976   1.283       .  A
O1966     Cd2792   2.122       .  S
O1967     Cd1968   1.935       .  S
Cd1968     O2791   1.939       .  S
Cd1968     O1970   2.044       .  S
O1969      C1976   1.284       .  A
O1969     Cd2793   2.055       .  S
C1971      O1975   1.262       .  A
C1971      C2003   1.460       .  S
C1972      C2271   1.522       .  S
C1977      O1978   1.273       .  A
C1977      C2782   1.453   1_545  S
O1979      C1995   1.277       .  A
O1979     Zn1985   2.026       .  S
C1980      O1996   1.284       .  A
C1980      O1993   1.272       .  A
C1980      C2040   1.460       .  S
O1981      C1994   1.288       .  A
O1981     Cd1988   2.143       .  S
O1982      C2000   1.265       .  A
O1982     Cd1991   1.988       .  S
O1983      C1997   1.296       .  A
O1984      C1995   1.293       .  A
O1984     Cd1987   2.214       .  S
Zn1985     O1996   2.035       .  S
Zn1985     O1998   1.909       .  S
Zn1985     O1990   1.849       .  S
O1986      C1997   1.255   1_455  A
Cd1987     O1990   1.963       .  S
Cd1988     O2001   2.075       .  S
Cd1988     O1990   1.960       .  S
O1989      C1999   1.283       .  A
O1990     Cd1991   1.936       .  S
Cd1991     O1993   2.044       .  S
O1992      C1999   1.284   1_455  A
C1994      O1998   1.262       .  A
C1995      C2133   1.523       .  S
C2000      O2001   1.273       .  A
O2002      C2018   1.277       .  A
O2002     Zn2008   2.026       .  S
C2003      O2019   1.284       .  A
C2003      O2016   1.272       .  A
O2004      C2017   1.288       .  A
O2004     Cd2011   2.143       .  S
O2005      C2023   1.265       .  A
O2005     Cd2014   1.988       .  S
O2006      C2020   1.296       .  A
O2007      C2018   1.293       .  A
O2007     Cd2010   2.216       .  S
Zn2008     O2019   2.034       .  S
Zn2008     O2021   1.910       .  S
Zn2008     O2013   1.850       .  S
O2009      C2020   1.255       .  A
Cd2010     O2013   1.963       .  S
Cd2011     O2024   2.075       .  S
Cd2011     O2013   1.960       .  S
O2012      C2022   1.282       .  A
O2013     Cd2014   1.936       .  S
Cd2014     O2016   2.043       .  S
O2015      C2022   1.284       .  A
C2017      O2021   1.262       .  A
C2017      C2049   1.460       .  S
C2018      C2225   1.523       .  S
C2023      O2024   1.273       .  A
O2025      C2041   1.277       .  A
O2025     Zn2031   2.026       .  S
C2026      O2042   1.284       .  A
C2026      O2039   1.272       .  A
O2027      C2040   1.288       .  A
O2027     Cd2034   2.144       .  S
O2028      C2046   1.265       .  A
O2028     Cd2037   1.987       .  S
O2029      C2043   1.296       .  A
O2029     Cd2033   2.192       .  S
O2030      C2041   1.293       .  A
O2030     Cd2033   2.214       .  S
Zn2031     O2042   2.035       .  S
Zn2031     O2044   1.910       .  S
Zn2031     O2036   1.849       .  S
O2032      C2043   1.255       .  A
O2032     Cd2037   1.938       .  S
Cd2033     O2035   2.120       .  S
Cd2033     O2036   1.963       .  S
Cd2034     O2038   2.056       .  S
Cd2034     O2047   2.075       .  S
Cd2034     O2036   1.960       .  S
O2035      C2045   1.282       .  A
O2036     Cd2037   1.935       .  S
Cd2037     O2039   2.044       .  S
O2038      C2045   1.284       .  A
C2040      O2044   1.262       .  A
C2041      C2087   1.523       .  S
C2046      O2047   1.273       .  A
C2046      C2069   1.453       .  S
O2048      C2064   1.277       .  A
O2048     Zn2054   2.026       .  S
C2049      O2065   1.284       .  A
C2049      O2062   1.272       .  A
O2050      C2063   1.288       .  A
O2050     Cd2057   2.144       .  S
O2051      C2069   1.265       .  A
O2051     Cd2060   1.988       .  S
O2052      C2066   1.295       .  A
O2052     Cd2056   2.192       .  S
O2053      C2064   1.293       .  A
O2053     Cd2056   2.214       .  S
Zn2054     O2065   2.035       .  S
Zn2054     O2067   1.910       .  S
Zn2054     O2059   1.849       .  S
O2055      C2066   1.255       .  A
O2055     Cd2060   1.939       .  S
Cd2056     O2058   2.120       .  S
Cd2056     O2059   1.962       .  S
Cd2057     O2061   2.056       .  S
Cd2057     O2070   2.075       .  S
Cd2057     O2059   1.960       .  S
O2058      C2068   1.282       .  A
O2059     Cd2060   1.935       .  S
Cd2060     O2062   2.044       .  S
O2061      C2068   1.284       .  A
C2063      O2067   1.262       .  A
C2064      C2317   1.522       .  S
C2069      O2070   1.273       .  A
O2071      C2087   1.277       .  A
O2071     Zn2077   2.026       .  S
C2072      O2088   1.284       .  A
C2072      O2085   1.272       .  A
C2072      C2132   1.460       .  S
O2073      C2086   1.288       .  A
O2073     Cd2080   2.143       .  S
O2074      C2092   1.265       .  A
O2074     Cd2083   1.989       .  S
O2075      C2089   1.296       .  A
O2075     Cd2079   2.193       .  S
O2076      C2087   1.293       .  A
O2076     Cd2079   2.214       .  S
Zn2077     O2088   2.035       .  S
Zn2077     O2090   1.909       .  S
Zn2077     O2082   1.850       .  S
O2078      C2089   1.255       .  A
O2078     Cd2083   1.939       .  S
Cd2079     O2081   2.121       .  S
Cd2079     O2082   1.963       .  S
Cd2080     O2084   2.055       .  S
Cd2080     O2093   2.075       .  S
Cd2080     O2082   1.960       .  S
O2081      C2091   1.283       .  A
O2082     Cd2083   1.936       .  S
Cd2083     O2085   2.044       .  S
O2084      C2091   1.284       .  A
C2086      O2090   1.262       .  A
C2086      C2164   1.459       .  S
C2092      O2093   1.273       .  A
C2092      C2115   1.453       .  S
O2094      C2110   1.277       .  A
O2094     Zn2100   2.026       .  S
C2095      O2108   1.272   1_655  A
C2095      C2201   1.460       .  S
O2096      C2109   1.288       .  A
O2096     Cd2103   2.144       .  S
O2097      C2115   1.265       .  A
O2097     Cd2106   1.988       .  S
O2098      C2112   1.296       .  A
O2098     Cd2102   2.195       .  S
O2099      C2110   1.293       .  A
O2099     Cd2102   2.216       .  S
Zn2100     O2111   2.034       .  S
Zn2100     O2113   1.910       .  S
Zn2100     O2105   1.850       .  S
O2101      C2112   1.255       .  A
O2101     Cd2106   1.939       .  S
Cd2102     O2104   2.120       .  S
Cd2102     O2105   1.963       .  S
Cd2103     O2107   2.054       .  S
Cd2103     O2116   2.076       .  S
Cd2103     O2105   1.960       .  S
O2104      C2114   1.282       .  A
O2105     Cd2106   1.936       .  S
O2107      C2114   1.284       .  A
C2109      O2113   1.262       .  A
C2109      C2141   1.460       .  S
C2110      C2340   1.523       .  S
C2112      C2483   1.463       .  S
C2114      C2365   1.461       .  S
C2115      O2116   1.273       .  A
O2117      C2133   1.277       .  A
O2117     Zn2123   2.026       .  S
C2118      O2134   1.284       .  A
C2118      O2131   1.272       .  A
C2118      C2178   1.460       .  S
O2119      C2132   1.288       .  A
O2119     Cd2126   2.144       .  S
O2120      C2138   1.265       .  A
O2120     Cd2129   1.987       .  S
O2121      C2135   1.295       .  A
O2121     Cd2125   2.192       .  S
O2122      C2133   1.293       .  A
O2122     Cd2125   2.214       .  S
Zn2123     O2134   2.035       .  S
Zn2123     O2136   1.910       .  S
Zn2123     O2128   1.849       .  S
O2124      C2135   1.255       .  A
O2124     Cd2129   1.939       .  S
Cd2125     O2127   2.120       .  S
Cd2125     O2128   1.963       .  S
Cd2126     O2130   2.056       .  S
Cd2126     O2139   2.075       .  S
Cd2126     O2128   1.960       .  S
O2128     Cd2129   1.935       .  S
Cd2129     O2131   2.044       .  S
C2132      O2136   1.262       .  A
C2135      C2621   1.462       .  S
C2138      O2139   1.273       .  A
C2138      C2161   1.453       .  S
O2140      C2156   1.277       .  A
O2140     Zn2146   2.026       .  S
C2141      O2157   1.284       .  A
C2141      O2154   1.272       .  A
O2142      C2155   1.288       .  A
O2143      C2161   1.265       .  A
O2143     Cd2152   1.988       .  S
O2144      C2158   1.295       .  A
O2144     Cd2148   2.192       .  S
O2145      C2156   1.293       .  A
O2145     Cd2148   2.214       .  S
Zn2146     O2985   2.035       .  S
Zn2146     O2151   1.849       .  S
O2147      C2158   1.255       .  A
O2147     Cd2152   1.939       .  S
Cd2148     O2150   2.120       .  S
Cd2148     O2151   1.963       .  S
Cd2149     O2153   2.056       .  S
Cd2149     O2162   2.075       .  S
Cd2149     O2151   1.960       .  S
O2150      C2160   1.282       .  A
O2151     Cd2152   1.936       .  S
Cd2152     O2982   2.044       .  S
O2153      C2160   1.284       .  A
O2154     Cd2980   2.044   1_545  S
C2155      O2159   1.262       .  A
C2155      C2187   1.460       .  S
O2157     Zn2974   2.035   1_545  S
C2158      C2437   1.462       .  S
C2160      C2480   1.462       .  S
C2161      O2162   1.273       .  A
O2163      C2179   1.277       .  A
O2163     Zn2169   2.027       .  S
C2164      O2180   1.284       .  A
C2164      O2177   1.272       .  A
O2165      C2178   1.288       .  A
O2165     Cd2172   2.144       .  S
O2166      C2184   1.265       .  A
O2166     Cd2175   1.988       .  S
O2167      C2181   1.296       .  A
O2167     Cd2171   2.195       .  S
O2168      C2179   1.293       .  A
O2168     Cd2171   2.216       .  S
Zn2169     O2180   2.034       .  S
Zn2169     O2182   1.910       .  S
Zn2169     O2174   1.850       .  S
O2170      C2181   1.255       .  A
O2170     Cd2175   1.938       .  S
Cd2171     O2173   2.121       .  S
Cd2171     O2174   1.963       .  S
Cd2172     O3004   2.054       .  S
Cd2172     O2185   2.076       .  S
Cd2172     O2174   1.960       .  S
O2173      C3011   1.282       .  A
O2174     Cd2175   1.936       .  S
Cd2175     O2177   2.043       .  S
O2176      C2183   1.284       .  A
O2176     Cd3000   2.054   1_545  S
C2178      O2182   1.262       .  A
C2183      O3001   1.282   1_545  A
C2184      O2185   1.273       .  A
C2184      C2207   1.453       .  S
O2186      C2202   1.277       .  A
O2186     Zn2192   2.025       .  S
C2187      O2203   1.284       .  A
C2187      O2200   1.272       .  A
O2188      C2201   1.288       .  A
O2188     Cd3023   2.143       .  S
O2189      C2207   1.265       .  A
O2189     Cd2198   1.988       .  S
O2190      C2204   1.296       .  A
O2190     Cd2194   2.193       .  S
O2191      C2202   1.293       .  A
O2191     Cd2194   2.214       .  S
Zn2192     O2203   2.035       .  S
Zn2192     O3033   1.910       .  S
Zn2192     O2197   1.849       .  S
O2193      C2204   1.255       .  A
O2193     Cd2198   1.939       .  S
Cd2194     O2196   2.122       .  S
Cd2194     O2197   1.962       .  S
Cd2195     O3016   2.143       .  S
Cd2195     O2199   2.056       .  S
Cd2195     O2208   2.075       .  S
Cd2195     O2197   1.960       .  S
O2196      C2206   1.283       .  A
O2197     Cd2198   1.935       .  S
Cd2198     O2200   2.044       .  S
O2199      C2206   1.284       .  A
C2201      O2205   1.262       .  A
C2202      C3122   1.522       .  S
C2204      C2368   1.462       .  S
O2205     Zn3020   1.910   1_545  S
C2206      C2434   1.463       .  S
C2207      O2208   1.273       .  A
O2209      C2225   1.277       .  A
O2209     Zn2215   2.026       .  S
C2210      O2226   1.284   1_556  A
C2210      O2223   1.272       .  A
C2210      C2316   1.459       .  S
O2211      C2224   1.288       .  A
O2211     Cd2218   2.143       .  S
O2212      C2230   1.265       .  A
O2212     Cd2221   1.988       .  S
O2213      C2227   1.296       .  A
O2213     Cd2217   2.195       .  S
O2214      C2225   1.293       .  A
O2214     Cd2217   2.216       .  S
Zn2215     O2226   2.034       .  S
Zn2215     O2228   1.910       .  S
Zn2215     O2220   1.849   1_554  S
O2216      C2227   1.255   1_556  A
O2216     Cd2221   1.938       .  S
Cd2217     O2219   2.120       .  S
Cd2217     O2220   1.963   1_554  S
Cd2218     O2222   2.054       .  S
Cd2218     O2231   2.075       .  S
Cd2218     O2220   1.960       .  S
O2220     Cd2221   1.936       .  S
Cd2221     O2223   2.043       .  S
C2224      O2228   1.262   1_556  A
C2224      C2256   1.460       .  S
C2230      O2231   1.273       .  A
C2230      C2253   1.453       .  S
O2232      C2248   1.277       .  A
O2232     Zn2238   2.026       .  S
C2233      O2249   1.284       .  A
C2233      O2246   1.272       .  A
C2233      C2293   1.460       .  S
O2234      C2247   1.288       .  A
O2235      C2253   1.265       .  A
O2235     Cd2244   1.988       .  S
O2236      C2250   1.296       .  A
O2236     Cd2240   2.193       .  S
O2237      C2248   1.293       .  A
O2237     Cd2240   2.214       .  S
Zn2238     O2249   2.035       .  S
Zn2238     O2243   1.849       .  S
O2239      C2250   1.255       .  A
O2239     Cd2244   1.939       .  S
Cd2240     O2242   2.122       .  S
Cd2240     O2243   1.962       .  S
Cd2241     O2245   2.055       .  S
Cd2241     O2254   2.075   1_455  S
Cd2241     O2243   1.960   1_455  S
O2242      C2252   1.283       .  A
O2243     Cd2244   1.936       .  S
Cd2244     O2246   2.043       .  S
O2245      C2252   1.284   1_455  A
C2247      O2251   1.262       .  A
C2247      C2325   1.459       .  S
C2250      C2391   1.462       .  S
C2252      C2457   1.463       .  S
C2253      O2254   1.273       .  A
O2255      C2271   1.277       .  A
O2255     Zn2261   2.026       .  S
C2256      O2272   1.284   1_556  A
C2256      O2269   1.272       .  A
O2257      C2270   1.288       .  A
O2257     Cd2264   2.144       .  S
O2258      C2276   1.265       .  A
O2258     Cd2267   1.987       .  S
O2259      C2273   1.295       .  A
O2259     Cd2263   2.192       .  S
O2260      C2271   1.293       .  A
O2260     Cd2263   2.213       .  S
Zn2261     O2272   2.035       .  S
Zn2261     O2274   1.910       .  S
Zn2261     O2266   1.849   1_554  S
O2262      C2273   1.255   1_556  A
O2262     Cd2267   1.939       .  S
Cd2263     O2265   2.120       .  S
Cd2263     O2266   1.962   1_554  S
Cd2264     O2268   2.056       .  S
Cd2264     O2277   2.075       .  S
Cd2264     O2266   1.960       .  S
O2265      C2275   1.282   1_554  A
O2266     Cd2267   1.935       .  S
Cd2267     O2269   2.044       .  S
O2268      C2275   1.284       .  A
C2270      O2274   1.262   1_556  A
C2270      C2302   1.460       .  S
C2275      C2687   1.462   1_545  S
C2276      O2277   1.273       .  A
C2276      C2299   1.453       .  S
O2278      C2294   1.277       .  A
O2278     Zn2284   2.026       .  S
C2279      O2292   1.272       .  A
C2279      C2339   1.460       .  S
O2280      C2293   1.288       .  A
O2280     Cd3115   2.144       .  S
O2281      C2299   1.265       .  A
O2281     Cd2290   1.987       .  S
O2282      C2296   1.296       .  A
O2282     Cd2286   2.192       .  S
O2283      C2294   1.293       .  A
O2283     Cd2286   2.214       .  S
Zn2284     O2295   2.035       .  S
Zn2284     O3125   1.910   1_545  S
Zn2284     O2289   1.849       .  S
O2285      C2296   1.255       .  A
O2285     Cd2290   1.939       .  S
Cd2286     O2288   2.120       .  S
Cd2286     O2289   1.963       .  S
Cd2287     O3108   2.144   1_545  S
Cd2287     O2291   2.056       .  S
Cd2287     O2300   2.075       .  S
Cd2287     O2289   1.960       .  S
O2288      C2298   1.282       .  A
O2289     Cd2290   1.935       .  S
O2291      C2298   1.284       .  A
C2293      O2297   1.262       .  A
C2294      C3030   1.522   1_545  S
C2296      C2460   1.462       .  S
O2297     Zn3112   1.910       .  S
C2298      C2411   1.462       .  S
C2299      O2300   1.273       .  A
O2301      C2317   1.277       .  A
O2301     Zn2307   2.025       .  S
C2302      O2318   1.284   1_556  A
C2302      O2315   1.272       .  A
O2303      C2316   1.288       .  A
O2303     Cd2310   2.143       .  S
O2304      C2322   1.265       .  A
O2304     Cd2313   1.988       .  S
O2305      C2319   1.296       .  A
O2305     Cd2309   2.193       .  S
O2306      C2317   1.293       .  A
O2306     Cd2309   2.214       .  S
Zn2307     O2318   2.035       .  S
Zn2307     O2320   1.909       .  S
Zn2307     O2312   1.849   1_554  S
O2308      C2319   1.255   1_556  A
O2308     Cd2313   1.939       .  S
Cd2309     O2311   2.122       .  S
Cd2309     O2312   1.962   1_554  S
Cd2310     O2314   2.055       .  S
Cd2310     O2323   2.075       .  S
Cd2310     O2312   1.960       .  S
O2311      C2321   1.283   1_554  A
O2312     Cd2313   1.936       .  S
Cd2313     O2315   2.044       .  S
O2314      C2321   1.284       .  A
C2316      O2320   1.262   1_556  A
C2322      O2323   1.273       .  A
C2322      C2345   1.453       .  S
O2324      C2340   1.277       .  A
O2324     Zn2330   2.026       .  S
C2325      O3169   1.284       .  A
C2325      O2338   1.272       .  A
O2326      C2339   1.288       .  A
O2326     Cd2333   2.144       .  S
O2327      C2345   1.265       .  A
O2327     Cd2336   1.988       .  S
O2328      C2342   1.296       .  A
O2328     Cd2332   2.194       .  S
O2329      C2340   1.293       .  A
O2329     Cd2332   2.215       .  S
Zn2330     O2341   2.034       .  S
Zn2330     O2343   1.910       .  S
Zn2330     O2335   1.849       .  S
O2331      C2342   1.255       .  A
O2331     Cd2336   1.939       .  S
Cd2332     O2334   2.120       .  S
Cd2332     O2335   1.963       .  S
Cd2333     O2337   2.054       .  S
Cd2333     O2346   2.076       .  S
Cd2333     O2335   1.960       .  S
O2334      C2344   1.282       .  A
O2335     Cd2336   1.936       .  S
Cd2336     O3166   2.043       .  S
O2337      C2344   1.284       .  A
O2338     Cd3164   2.043       .  S
C2339      O2343   1.262       .  A
O2341      C3153   1.284       .  A
C2342      C2414   1.463       .  S
C2344      C2388   1.462       .  S
C2345      O2346   1.273       .  A
O2347      C2363   1.284       .  A
O2347     Zn2353   2.035       .  S
C2348      O2364   1.277       .  A
C2348      O2361   1.293       .  A
O2349      C2362   1.288       .  A
O2349     Cd2356   2.144       .  S
O2350      C2368   1.282       .  A
O2350     Cd2359   2.120       .  S
O2351      C2365   1.255       .  A
O2351     Cd2355   1.939       .  S
O2352      C2363   1.272       .  A
O2352     Cd2355   2.044       .  S
Zn2353     O2364   2.026       .  S
Zn2353     O2366   1.909       .  S
Zn2353     O2358   1.849       .  S
O2354      C2365   1.295       .  A
O2354     Cd2359   2.192       .  S
Cd2355     O2357   1.987       .  S
Cd2355     O2358   1.936       .  S
Cd2356     O2360   2.075       .  S
Cd2356     O2369   2.056       .  S
Cd2356     O2358   1.960       .  S
O2357      C2367   1.265       .  A
O2358     Cd2359   1.963       .  S
Cd2359     O2361   2.214       .  S
O2360      C2367   1.273       .  A
C2362      O2366   1.262       .  A
C2362      C2478   1.460       .  S
C2363      C2431   1.460       .  S
C2367      C2390   1.453       .  S
C2368      O2369   1.284       .  A
O2370      C2386   1.284       .  A
O2370     Zn2376   2.035       .  S
C2371      O2387   1.277       .  A
C2371      O2384   1.293       .  A
O2372      C2385   1.288       .  A
O2372     Cd2379   2.143       .  S
O2373      C2391   1.282       .  A
O2373     Cd2382   2.120       .  S
O2374      C2388   1.255       .  A
O2374     Cd2378   1.939       .  S
O2375      C2386   1.272       .  A
O2375     Cd2378   2.044       .  S
Zn2376     O2387   2.026       .  S
Zn2376     O2389   1.910       .  S
Zn2376     O2381   1.849       .  S
O2377      C2388   1.295       .  A
O2377     Cd2382   2.192       .  S
Cd2378     O2380   1.988       .  S
Cd2378     O2381   1.935       .  S
Cd2379     O2383   2.075       .  S
Cd2379     O2392   2.056       .  S
Cd2379     O2381   1.960       .  S
O2380      C2390   1.265       .  A
O2381     Cd2382   1.963       .  S
Cd2382     O2384   2.213       .  S
O2383      C2390   1.273       .  A
C2385      O2389   1.262       .  A
C2385      C2409   1.460       .  S
C2386      C2454   1.460       .  S
C2391      O2392   1.284       .  A
O2393      C2409   1.284       .  A
O2393     Zn2399   2.034       .  S
C2394      O2410   1.277       .  A
C2394      O2407   1.293       .  A
O2395      C2408   1.288       .  A
O2395     Cd2402   2.143       .  S
O2396      C2414   1.283       .  A
O2396     Cd2405   2.121       .  S
O2397      C2411   1.255   1_565  A
O2397     Cd3229   1.939       .  S
O2398      C2409   1.272       .  A
O2398     Cd2401   2.044       .  S
Zn2399     O2410   2.025       .  S
Zn2399     O2412   1.909       .  S
Zn2399     O2404   1.849       .  S
O2400      C2411   1.296       .  A
O2400     Cd2405   2.193       .  S
Cd2401     O3225   1.939       .  S
Cd2401     O2403   1.988       .  S
Cd2401     O2404   1.936       .  S
Cd2402     O2406   2.075       .  S
Cd2402     O3243   2.056       .  S
Cd2402     O2404   1.960       .  S
O2403      C2413   1.265       .  A
O2404     Cd3233   1.962       .  S
Cd2405     O3235   2.214   1_545  S
Cd2405     O3232   1.962   1_545  S
O2406      C2413   1.273       .  A
O2407     Cd3233   2.214       .  S
C2408      O2412   1.262       .  A
C2408      C2455   1.459       .  S
C2413      C3264   1.453       .  S
C2414      O2415   1.284   1_545  A
O2415     Cd3230   2.056       .  S
O2416      C2432   1.284       .  A
O2416     Zn2422   2.034       .  S
C2417      O2433   1.277       .  A
C2417      O2430   1.293       .  A
O2418      C2431   1.288       .  A
O2418     Cd2425   2.143       .  S
O2419      C2437   1.282       .  A
O2419     Cd3256   2.120       .  S
O2420      C2434   1.255       .  A
O2420     Cd3252   1.938       .  S
O2421      C2432   1.272       .  A
O2421     Cd2424   2.043       .  S
Zn2422     O2433   2.027       .  S
Zn2422     O2435   1.910       .  S
Zn2422     O2427   1.850       .  S
O2423      C2434   1.296       .  A
O2423     Cd3256   2.195       .  S
Cd2424     O3248   1.938       .  S
Cd2424     O2426   1.988       .  S
Cd2424     O2427   1.936       .  S
Cd2425     O2429   2.075       .  S
Cd2425     O2438   2.054       .  S
Cd2425     O2427   1.960       .  S
O2426      C2436   1.265       .  A
O2427     Cd2428   1.963       .  S
Cd2428     O3247   2.120   1_545  S
Cd2428     O3251   2.195   1_545  S
Cd2428     O2430   2.216       .  S
O2429      C2436   1.273       .  A
C2431      O2435   1.262       .  A
C2432      C2477   1.460       .  S
C2436      C3241   1.453   1_545  S
C2437      O3266   1.284       .  A
O2438      C3265   1.284   1_545  A
O2439      C2455   1.284       .  A
O2439     Zn2445   2.034       .  S
C2440      O2456   1.277       .  A
C2440      O2453   1.293       .  A
O2441      C2454   1.288       .  A
O2441     Cd2448   2.143       .  S
O2442      C2460   1.282       .  A
O2443      C2457   1.255   1_455  A
O2444      C2455   1.272       .  A
O2444     Cd2447   2.043       .  S
Zn2445     O2456   2.026       .  S
Zn2445     O2458   1.910       .  S
Zn2445     O2450   1.850       .  S
O2446      C2457   1.296       .  A
Cd2447     O2449   1.988       .  S
Cd2447     O2450   1.936       .  S
Cd2448     O2452   2.075       .  S
Cd2448     O2450   1.960       .  S
O2449      C2459   1.265       .  A
O2450     Cd2451   1.963       .  S
Cd2451     O2453   2.216       .  S
O2452      C2459   1.273       .  A
C2454      O2458   1.262       .  A
C2460      O2461   1.284   1_655  A
O2462      C2478   1.284       .  A
O2462     Zn2468   2.035       .  S
C2463      O2479   1.277       .  A
C2463      O2476   1.293       .  A
O2464      C2477   1.288       .  A
O2464     Cd2471   2.143       .  S
O2465      C2483   1.283       .  A
O2465     Cd2474   2.122       .  S
O2466      C2480   1.255       .  A
O2467      C2478   1.272       .  A
O2467     Cd2470   2.043       .  S
Zn2468     O2479   2.026       .  S
Zn2468     O2481   1.910       .  S
Zn2468     O2473   1.850       .  S
O2469      C2480   1.296       .  A
O2469     Cd2474   2.193       .  S
Cd2470     O2472   1.988       .  S
Cd2470     O2473   1.936       .  S
Cd2471     O2475   2.075       .  S
Cd2471     O2473   1.960       .  S
O2472      C2482   1.265       .  A
O2475      C2482   1.273       .  A
C2477      O2481   1.262       .  A
C2483      O2484   1.284       .  A
O2485      C2501   1.284       .  A
O2485     Zn2491   2.035       .  S
C2486      O2502   1.277       .  A
C2486      O2499   1.293       .  A
C2486      C3291   1.522       .  S
O2487      C2500   1.288       .  A
O2487     Cd2494   2.144       .  S
O2488     Cd2497   2.120       .  S
O2489      C2503   1.255       .  A
O2489     Cd2493   1.939       .  S
O2490      C2501   1.272       .  A
O2490     Cd2493   2.044       .  S
Zn2491     O2502   2.026       .  S
Zn2491     O2504   1.909       .  S
Zn2491     O2496   1.849       .  S
O2492      C2503   1.296       .  A
O2492     Cd2497   2.192       .  S
Cd2493     O2495   1.988       .  S
Cd2493     O2496   1.936       .  S
Cd2494     O2498   2.076       .  S
Cd2494     O2507   2.056       .  S
Cd2494     O2496   1.960       .  S
O2495      C2505   1.265       .  A
O2496     Cd2497   1.963       .  S
Cd2497     O2499   2.214       .  S
O2498      C2505   1.273       .  A
C2500      O2504   1.262       .  A
C2500      C2570   1.460       .  S
C2501      C2615   1.460       .  S
C2503      C3011   1.462       .  S
C2505      C2528   1.453       .  S
C2506      C2917   1.462       .  S
O2508     Zn2514   2.035       .  S
C2509      O2525   1.277       .  A
C2509      O2522   1.293       .  A
O2510      C2523   1.288       .  A
O2511      C2529   1.282       .  A
O2511     Cd2520   2.120       .  S
O2512      C2526   1.255       .  A
O2512     Cd2516   1.939       .  S
O2513      C2524   1.272       .  A
Zn2514     O2525   2.026       .  S
Zn2514     O2519   1.849       .  S
O2515      C2526   1.296       .  A
O2515     Cd2520   2.192       .  S
Cd2516     O2518   1.988       .  S
Cd2516     O2519   1.935       .  S
Cd2517     O2521   2.075   1_455  S
Cd2517     O2530   2.056       .  S
Cd2517     O2519   1.960   1_455  S
O2518      C2528   1.265       .  A
O2519     Cd2520   1.963       .  S
Cd2520     O2522   2.214       .  S
O2521      C2528   1.273       .  A
C2523      O2527   1.262       .  A
C2523      C2593   1.460       .  S
C2524      C2546   1.460   1_545  S
C2526      C2781   1.462       .  S
C2529      O2530   1.284   1_655  A
C2529      C2825   1.462       .  S
O2531     Zn2537   2.034       .  S
C2532      O2548   1.277       .  A
C2532      O2545   1.293       .  A
C2532      C2693   1.523       .  S
O2533      C2546   1.288       .  A
O2533     Cd2540   2.143       .  S
O2534      C2552   1.282       .  A
O2534     Cd2543   2.121       .  S
O2535      C2549   1.255       .  A
O2535     Cd2539   1.938       .  S
O2536      C2547   1.272       .  A
Zn2537     O2548   2.027       .  S
Zn2537     O2550   1.910       .  S
Zn2537     O2542   1.850       .  S
O2538      C2549   1.296       .  A
O2538     Cd2543   2.194       .  S
Cd2539     O2541   1.988       .  S
Cd2539     O2542   1.936       .  S
Cd2540     O2544   2.076       .  S
Cd2540     O2553   2.054       .  S
Cd2540     O2542   1.960       .  S
O2541      C2551   1.265       .  A
O2542     Cd2543   1.963       .  S
Cd2543     O2545   2.216       .  S
O2544      C2551   1.273       .  A
C2546      O2550   1.262       .  A
C2547      C2592   1.459       .  S
C2549      C2827   1.462       .  S
C2551      C2574   1.453       .  S
C2552      O2553   1.284       .  A
C2552      C2871   1.462       .  S
O2554      C2570   1.284       .  A
O2554     Zn2560   2.035       .  S
C2555      O2571   1.277       .  A
C2555      O2568   1.293       .  A
C2555      C3176   1.523       .  S
O2556      C2569   1.288       .  A
O2556     Cd2563   2.143       .  S
O2557      C2575   1.283       .  A
O2557     Cd2566   2.122       .  S
O2558      C2572   1.255       .  A
O2558     Cd2562   1.939       .  S
O2559      C2570   1.272       .  A
O2559     Cd2562   2.044       .  S
Zn2560     O2571   2.026       .  S
Zn2560     O2573   1.910       .  S
Zn2560     O2565   1.849       .  S
O2561      C2572   1.296       .  A
O2561     Cd2566   2.193       .  S
Cd2562     O2564   1.988       .  S
Cd2562     O2565   1.936       .  S
Cd2563     O2567   2.075       .  S
Cd2563     O2576   2.055       .  S
Cd2563     O2565   1.960       .  S
O2564      C2574   1.265       .  A
O2565     Cd2566   1.963       .  S
Cd2566     O2568   2.214       .  S
O2567      C2574   1.273       .  A
C2569      O2573   1.262       .  A
C2569      C2616   1.459       .  S
C2572      C2965   1.462       .  S
C2575      O2576   1.284       .  A
C2575      C3009   1.462       .  S
O2577      C2593   1.284       .  A
O2577     Zn2583   2.035       .  S
C2578      O2594   1.277       .  A
C2578      O2591   1.293       .  A
O2579      C2592   1.288       .  A
O2580      C2598   1.283       .  A
O2580     Cd2589   2.122       .  S
O2581      C2595   1.255       .  A
O2581     Cd2585   1.939       .  S
O2582      C2593   1.272       .  A
O2582     Cd2585   2.044       .  S
Zn2583     O2594   2.026       .  S
Zn2583     O2588   1.849       .  S
O2584      C2595   1.296       .  A
O2584     Cd2589   2.193       .  S
Cd2585     O2587   1.989       .  S
Cd2585     O2588   1.936       .  S
Cd2586     O2590   2.075       .  S
Cd2586     O2599   2.055       .  S
Cd2586     O2588   1.960       .  S
O2587      C2597   1.265       .  A
O2588     Cd2589   1.963       .  S
Cd2589     O2591   2.214       .  S
O2590      C2597   1.273       .  A
C2592      O2596   1.262       .  A
C2595      C2873   1.462       .  S
C2597      C2620   1.453       .  S
C2598      O2599   1.284       .  A
C2598      C2779   1.462       .  S
O2600      C2616   1.284       .  A
O2600     Zn2606   2.034       .  S
C2601      O2617   1.277       .  A
C2601      O2614   1.293       .  A
C2601      C3245   1.523       .  S
O2602      C2615   1.288       .  A
O2602     Cd2609   2.144       .  S
O2603      C2621   1.282       .  A
O2603     Cd2612   2.120       .  S
O2604      C2618   1.255       .  A
O2604     Cd2608   1.939       .  S
O2605      C2616   1.272       .  A
O2605     Cd2608   2.043       .  S
Zn2606     O2617   2.026       .  S
Zn2606     O2619   1.910       .  S
Zn2606     O2611   1.850       .  S
O2607      C2618   1.296       .  A
O2607     Cd2612   2.194       .  S
Cd2608     O2610   1.988       .  S
Cd2608     O2611   1.936       .  S
Cd2609     O2613   2.076       .  S
Cd2609     O2622   2.054       .  S
Cd2609     O2611   1.960       .  S
O2610      C2620   1.265       .  A
O2611     Cd2612   1.963       .  S
Cd2612     O2614   2.216       .  S
O2613      C2620   1.273       .  A
C2615      O2619   1.262       .  A
C2618      C2919   1.462       .  S
C2621      O2622   1.284       .  A
O2623      C2639   1.284   1_556  A
O2623     Zn2629   2.034       .  S
C2624      O2640   1.277       .  A
C2624      O2637   1.293       .  A
C2624      C3268   1.523       .  S
O2625      C2638   1.288       .  A
O2625     Cd2632   2.144       .  S
O2626     Cd2635   2.120       .  S
O2627      C2641   1.255   1_554  A
O2627     Cd2631   1.939       .  S
O2628      C2639   1.272       .  A
O2628     Cd2631   2.043       .  S
Zn2629     O2640   2.026       .  S
Zn2629     O2642   1.910       .  S
Zn2629     O2634   1.850   1_556  S
O2630      C2641   1.296       .  A
O2630     Cd2635   2.194       .  S
Cd2631     O2633   1.988       .  S
Cd2631     O2634   1.936       .  S
Cd2632     O2636   2.076       .  S
Cd2632     O2645   2.054       .  S
Cd2632     O2634   1.960       .  S
O2633      C2643   1.265       .  A
O2634     Cd2635   1.963   1_554  S
Cd2635     O2637   2.216       .  S
O2636      C2643   1.273       .  A
C2638      O2642   1.262   1_554  A
C2638      C2731   1.460       .  S
C2639      C2684   1.459       .  S
C2641      C3149   1.463       .  S
C2643      C2666   1.453       .  S
C2644      C3101   1.462       .  S
O2646      C2662   1.284       .  A
O2646     Zn2652   2.035       .  S
C2647      O2663   1.277       .  A
C2647      O2660   1.293       .  A
O2648      C2661   1.288       .  A
O2649      C2667   1.283       .  A
O2649     Cd2658   2.122       .  S
O2650      C2664   1.255       .  A
O2650     Cd2654   1.939       .  S
O2651      C2662   1.272       .  A
O2651     Cd2654   2.044       .  S
Zn2652     O2663   2.026       .  S
Zn2652     O2657   1.849       .  S
O2653      C2664   1.296       .  A
O2653     Cd2658   2.194       .  S
Cd2654     O2656   1.989       .  S
Cd2654     O2657   1.935       .  S
Cd2655     O2659   2.075       .  S
Cd2655     O2668   2.055       .  S
Cd2655     O2657   1.960       .  S
O2656      C2666   1.265       .  A
O2657     Cd2658   1.962       .  S
Cd2658     O2660   2.214       .  S
O2659      C2666   1.273       .  A
C2661      O2665   1.262       .  A
C2661      C2708   1.459       .  S
C2662      C2753   1.460       .  S
C2664      C2896   1.462       .  S
C2667      O2668   1.284       .  A
C2667      C2848   1.462       .  S
O2669      C2685   1.284   1_556  A
O2669     Zn2675   2.035       .  S
C2670      O2686   1.277       .  A
C2670      O2683   1.293       .  A
C2670      C3199   1.522       .  S
O2671      C2684   1.288       .  A
O2671     Cd2678   2.143       .  S
O2672      C2690   1.283   1_556  A
O2672     Cd2681   2.122       .  S
O2673      C2687   1.255   1_554  A
O2673     Cd2677   1.939       .  S
O2674      C2685   1.272       .  A
O2674     Cd2677   2.044       .  S
Zn2675     O2686   2.025       .  S
Zn2675     O2688   1.909       .  S
Zn2675     O2680   1.849   1_556  S
O2676      C2687   1.296       .  A
O2676     Cd2681   2.193       .  S
Cd2677     O2679   1.988       .  S
Cd2677     O2680   1.935       .  S
Cd2678     O2682   2.075       .  S
Cd2678     O2691   2.055       .  S
Cd2678     O2680   1.960       .  S
O2679      C2689   1.265       .  A
O2680     Cd2681   1.962   1_554  S
Cd2681     O2683   2.214       .  S
O2682      C2689   1.273       .  A
C2684      O2688   1.262   1_554  A
C2685      C2730   1.460       .  S
C2689      C2712   1.453       .  S
C2690      O2691   1.284       .  A
C2690      C3055   1.462       .  S
O2692      C2708   1.284       .  A
C2693      O2709   1.277       .  A
C2693      O2706   1.293       .  A
O2694      C2707   1.288       .  A
O2694     Cd2701   2.143       .  S
O2695      C2713   1.282       .  A
O2695     Cd2704   2.120       .  S
O2696      C2710   1.255       .  A
O2696     Cd2700   1.938       .  S
O2697      C2708   1.272       .  A
Zn2698     O2709   2.027       .  S
Zn2698     O2711   1.910       .  S
Zn2698     O2703   1.849       .  S
O2699      C2710   1.296       .  A
O2699     Cd2704   2.194       .  S
Cd2700     O2702   1.988       .  S
Cd2700     O2703   1.936       .  S
Cd2701     O2705   2.075       .  S
Cd2701     O2714   2.054       .  S
Cd2701     O2703   1.960       .  S
O2702      C2712   1.265       .  A
O2703     Cd2704   1.963       .  S
Cd2704     O2706   2.216       .  S
O2705      C2712   1.273       .  A
C2707      O2711   1.262       .  A
C2707      C2754   1.460       .  S
C2710      C2804   1.462       .  S
C2713      O2714   1.284       .  A
C2713      C2894   1.462       .  S
O2715      C2731   1.284   1_556  A
O2715     Zn2721   2.035       .  S
C2716      O2732   1.277       .  A
C2716      O2729   1.293       .  A
C2716      C3222   1.522       .  S
O2717      C2730   1.288       .  A
O2717     Cd2724   2.144       .  S
O2718     Cd2727   2.120       .  S
O2719      C2733   1.255   1_554  A
O2719     Cd2723   1.939       .  S
O2720      C2731   1.272       .  A
O2720     Cd2723   2.044       .  S
Zn2721     O2732   2.026       .  S
Zn2721     O2734   1.910       .  S
Zn2721     O2726   1.849   1_556  S
O2722      C2733   1.295       .  A
O2722     Cd2727   2.192       .  S
Cd2723     O2725   1.987       .  S
Cd2723     O2726   1.935       .  S
Cd2724     O2728   2.075       .  S
Cd2724     O2726   1.960       .  S
O2725      C2735   1.265       .  A
O2726     Cd2727   1.963   1_554  S
Cd2727     O2729   2.213       .  S
O2728      C2735   1.273       .  A
C2730      O2734   1.262   1_554  A
C2733      C3057   1.462       .  S
C2735      C2758   1.453       .  S
C2736      O2737   1.284       .  A
C2736      C3147   1.462       .  S
O2738     Zn2744   2.035       .  S
C2739      O2755   1.277       .  A
C2739      O2752   1.293       .  A
O2740      C2753   1.288       .  A
O2741      C2759   1.282       .  A
O2741     Cd2750   2.120       .  S
O2742      C2756   1.255       .  A
O2742     Cd2746   1.939       .  S
O2743      C2754   1.272   1_455  A
Zn2744     O2755   2.026       .  S
Zn2744     O2749   1.849       .  S
O2745      C2756   1.295       .  A
O2745     Cd2750   2.192       .  S
Cd2746     O2748   1.987       .  S
Cd2746     O2749   1.935       .  S
Cd2747     O2751   2.075   1_545  S
Cd2747     O2760   2.056       .  S
Cd2747     O2749   1.960   1_545  S
O2748      C2758   1.265       .  A
O2749     Cd2750   1.962       .  S
Cd2750     O2752   2.214       .  S
O2751      C2758   1.273       .  A
C2753      O2757   1.262       .  A
C2756      C2850   1.462       .  S
C2759      O2760   1.284   1_565  A
C2759      C2802   1.462   1_565  S
O2761      C2777   1.277       .  A
O2761     Zn2767   2.027       .  S
C2762      O2778   1.284       .  A
C2762      O2775   1.272       .  A
C2762      C2822   1.459       .  S
O2763      C2776   1.288       .  A
O2763     Cd2770   2.144       .  S
O2764      C2782   1.265       .  A
O2764     Cd2773   1.988       .  S
O2765      C2779   1.296       .  A
O2765     Cd2769   2.194       .  S
O2766      C2777   1.293       .  A
Zn2767     O2778   2.034       .  S
Zn2767     O2780   1.910       .  S
Zn2767     O2772   1.850       .  S
O2768      C2779   1.255       .  A
Cd2769     O2771   2.120       .  S
Cd2770     O2783   2.076       .  S
Cd2770     O2772   1.960       .  S
O2771      C2781   1.282       .  A
O2772     Cd2773   1.936       .  S
Cd2773     O2775   2.043       .  S
O2774      C2781   1.284       .  A
C2776      O2780   1.262       .  A
C2776      C2854   1.460       .  S
C2777      C3007   1.523       .  S
C2782      O2783   1.273       .  A
O2784      C2800   1.277       .  A
O2784     Zn2790   2.025       .  S
C2785      O2801   1.284       .  A
C2785      O2798   1.272       .  A
C2785      C2891   1.460       .  S
O2786      C2799   1.288       .  A
O2786     Cd2793   2.143       .  S
O2787      C2805   1.265       .  A
O2787     Cd2796   1.989       .  S
O2788      C2802   1.296   1_565  A
O2789      C2800   1.293       .  A
O2789     Cd2792   2.214       .  S
Zn2790     O2801   2.035       .  S
Zn2790     O2803   1.909       .  S
Zn2790     O2795   1.849       .  S
O2791      C2802   1.255       .  A
Cd2792     O2795   1.963       .  S
Cd2793     O2806   2.075       .  S
Cd2793     O2795   1.960       .  S
O2794      C2804   1.283       .  A
O2795     Cd2796   1.935       .  S
Cd2796     O2798   2.044       .  S
O2797      C2804   1.284   1_545  A
C2799      O2803   1.262       .  A
C2799      C2831   1.460       .  S
C2800      C3099   1.522       .  S
C2805      O2806   1.273       .  A
O2807      C2823   1.277       .  A
O2807     Zn2813   2.026       .  S
C2808      O2824   1.284       .  A
C2808      O2821   1.272       .  A
C2808      C2868   1.460       .  S
O2809      C2822   1.288       .  A
O2809     Cd2816   2.143       .  S
O2810      C2828   1.265       .  A
O2810     Cd2819   1.988       .  S
O2811      C2825   1.296       .  A
O2812      C2823   1.293       .  A
O2812     Cd2815   2.215       .  S
Zn2813     O2824   2.035       .  S
Zn2813     O2826   1.909       .  S
Zn2813     O2818   1.849       .  S
O2814      C2825   1.255   1_455  A
Cd2815     O2818   1.963       .  S
Cd2816     O2829   2.075       .  S
Cd2816     O2818   1.960       .  S
O2817      C2827   1.283       .  A
O2818     Cd2819   1.936       .  S
Cd2819     O2821   2.044       .  S
O2820      C2827   1.284   1_455  A
C2822      O2826   1.262       .  A
C2823      C2961   1.523       .  S
C2828      O2829   1.273       .  A
O2830      C2846   1.277       .  A
O2830     Zn2836   2.026       .  S
C2831      O2847   1.284       .  A
C2831      O2844   1.272       .  A
O2832      C2845   1.288       .  A
O2832     Cd2839   2.143       .  S
O2833      C2851   1.265       .  A
O2833     Cd2842   1.988       .  S
O2834      C2848   1.296       .  A
O2835      C2846   1.293       .  A
O2835     Cd2838   2.216       .  S
Zn2836     O2847   2.034       .  S
Zn2836     O2849   1.910       .  S
Zn2836     O2841   1.850       .  S
O2837      C2848   1.255       .  A
Cd2838     O2841   1.963       .  S
Cd2839     O2852   2.075       .  S
Cd2839     O2841   1.960       .  S
O2840      C2850   1.282       .  A
O2841     Cd2842   1.936       .  S
Cd2842     O2844   2.043       .  S
O2843      C2850   1.284       .  A
C2845      O2849   1.262       .  A
C2845      C2877   1.460       .  S
C2846      C3053   1.523       .  S
C2851      O2852   1.273       .  A
O2853      C2869   1.277       .  A
O2853     Zn2859   2.026       .  S
C2854      O2870   1.284       .  A
C2854      O2867   1.272       .  A
O2855      C2868   1.288       .  A
O2855     Cd2862   2.144       .  S
O2856      C2874   1.265       .  A
O2856     Cd2865   1.987       .  S
O2857      C2871   1.296       .  A
O2857     Cd2861   2.192       .  S
O2858      C2869   1.293       .  A
O2858     Cd2861   2.214       .  S
Zn2859     O2870   2.035       .  S
Zn2859     O2872   1.910       .  S
Zn2859     O2864   1.849       .  S
O2860      C2871   1.255       .  A
O2860     Cd2865   1.938       .  S
Cd2861     O2863   2.120       .  S
Cd2861     O2864   1.963       .  S
Cd2862     O2866   2.056       .  S
Cd2862     O2875   2.075       .  S
Cd2862     O2864   1.960       .  S
O2863      C2873   1.282       .  A
O2864     Cd2865   1.935       .  S
Cd2865     O2867   2.044       .  S
O2866      C2873   1.284       .  A
C2868      O2872   1.262       .  A
C2869      C2915   1.523       .  S
C2874      O2875   1.273       .  A
C2874      C2897   1.453       .  S
O2876      C2892   1.277       .  A
O2876     Zn2882   2.026       .  S
C2877      O2893   1.284       .  A
C2877      O2890   1.272       .  A
O2878      C2891   1.288       .  A
O2878     Cd2885   2.144       .  S
O2879      C2897   1.265       .  A
O2879     Cd2888   1.988       .  S
O2880      C2894   1.295       .  A
O2880     Cd2884   2.192       .  S
O2881      C2892   1.293       .  A
O2881     Cd2884   2.214       .  S
Zn2882     O2893   2.035       .  S
Zn2882     O2895   1.910       .  S
Zn2882     O2887   1.849       .  S
O2883      C2894   1.255       .  A
O2883     Cd2888   1.939       .  S
Cd2884     O2886   2.120       .  S
Cd2884     O2887   1.962       .  S
Cd2885     O2889   2.056       .  S
Cd2885     O2898   2.075       .  S
Cd2885     O2887   1.960       .  S
O2886      C2896   1.282       .  A
O2887     Cd2888   1.935       .  S
Cd2888     O2890   2.044       .  S
O2889      C2896   1.284       .  A
C2891      O2895   1.262       .  A
C2892      C3145   1.522       .  S
C2897      O2898   1.273       .  A
O2899      C2915   1.277       .  A
O2899     Zn2905   2.026       .  S
C2900      O2916   1.284       .  A
C2900      O2913   1.272       .  A
C2900      C2960   1.460       .  S
O2901      C2914   1.288       .  A
O2901     Cd2908   2.143       .  S
O2902      C2920   1.265       .  A
O2902     Cd2911   1.989       .  S
O2903      C2917   1.296       .  A
O2903     Cd2907   2.193       .  S
O2904      C2915   1.293       .  A
O2904     Cd2907   2.214       .  S
Zn2905     O2916   2.035       .  S
Zn2905     O2918   1.909       .  S
Zn2905     O2910   1.850       .  S
O2906      C2917   1.255       .  A
O2906     Cd2911   1.939       .  S
Cd2907     O2909   2.121       .  S
Cd2907     O2910   1.963       .  S
Cd2908     O2912   2.055       .  S
Cd2908     O2921   2.075       .  S
Cd2908     O2910   1.960       .  S
O2909      C2919   1.283       .  A
O2910     Cd2911   1.936       .  S
Cd2911     O2913   2.044       .  S
O2912      C2919   1.284       .  A
C2914      O2918   1.262       .  A
C2914      C2992   1.459       .  S
C2920      O2921   1.273       .  A
C2920      C2943   1.453       .  S
O2922      C2938   1.277       .  A
O2922     Zn2928   2.026       .  S
C2923      O2936   1.272   1_655  A
C2923      C3029   1.460       .  S
O2924      C2937   1.288       .  A
O2924     Cd2931   2.144       .  S
O2925      C2943   1.265       .  A
O2925     Cd2934   1.988       .  S
O2926      C2940   1.296       .  A
O2926     Cd2930   2.195       .  S
O2927      C2938   1.293       .  A
O2927     Cd2930   2.216       .  S
Zn2928     O2939   2.034       .  S
Zn2928     O2941   1.910       .  S
Zn2928     O2933   1.850       .  S
O2929      C2940   1.255       .  A
O2929     Cd2934   1.939       .  S
Cd2930     O2932   2.120       .  S
Cd2930     O2933   1.963       .  S
Cd2931     O2935   2.054       .  S
Cd2931     O2944   2.076       .  S
Cd2931     O2933   1.960       .  S
O2932      C2942   1.282       .  A
O2933     Cd2934   1.936       .  S
O2935      C2942   1.284       .  A
C2937      O2941   1.262       .  A
C2937      C2969   1.460       .  S
C2938      C3168   1.523       .  S
C2940      C3311   1.463       .  S
C2942      C3193   1.461       .  S
C2943      O2944   1.273       .  A
O2945      C2961   1.277       .  A
O2945     Zn2951   2.026       .  S
C2946      O2962   1.284       .  A
C2946      O2959   1.272       .  A
C2946      C3006   1.460       .  S
O2947      C2960   1.288       .  A
O2947     Cd2954   2.144       .  S
O2948      C2966   1.265       .  A
O2948     Cd2957   1.987       .  S
O2949      C2963   1.295       .  A
O2949     Cd2953   2.192       .  S
O2950      C2961   1.293       .  A
O2950     Cd2953   2.214       .  S
Zn2951     O2962   2.035       .  S
Zn2951     O2964   1.910       .  S
Zn2951     O2956   1.849       .  S
O2952      C2963   1.255       .  A
O2952     Cd2957   1.939       .  S
Cd2953     O2955   2.120       .  S
Cd2953     O2956   1.963       .  S
Cd2954     O2958   2.056       .  S
Cd2954     O2967   2.075       .  S
Cd2954     O2956   1.960       .  S
O2956     Cd2957   1.935       .  S
Cd2957     O2959   2.044       .  S
C2960      O2964   1.262       .  A
C2966      O2967   1.273       .  A
C2966      C2989   1.453       .  S
O2968      C2984   1.277       .  A
O2968     Zn2974   2.026       .  S
C2969      O2985   1.284       .  A
C2969      O2982   1.272       .  A
O2970      C2983   1.288       .  A
O2971      C2989   1.265       .  A
O2971     Cd2980   1.988       .  S
O2972      C2986   1.295       .  A
O2972     Cd2976   2.192       .  S
O2973      C2984   1.293       .  A
O2973     Cd2976   2.214       .  S
Zn2974     O2979   1.849       .  S
O2975      C2986   1.255       .  A
O2975     Cd2980   1.939       .  S
Cd2976     O2978   2.120       .  S
Cd2976     O2979   1.963       .  S
Cd2977     O2981   2.056       .  S
Cd2977     O2990   2.075       .  S
Cd2977     O2979   1.960       .  S
O2978      C2988   1.282       .  A
O2979     Cd2980   1.936       .  S
O2981      C2988   1.284       .  A
C2983      O2987   1.262       .  A
C2983      C3015   1.460       .  S
C2986      C3265   1.462       .  S
C2988      C3308   1.462       .  S
C2989      O2990   1.273       .  A
O2991      C3007   1.277       .  A
O2991     Zn2997   2.027       .  S
C2992      O3008   1.284       .  A
C2992      O3005   1.272       .  A
O2993      C3006   1.288       .  A
O2993     Cd3000   2.144       .  S
O2994      C3012   1.265       .  A
O2994     Cd3003   1.988       .  S
O2995      C3009   1.296       .  A
O2995     Cd2999   2.195       .  S
O2996      C3007   1.293       .  A
O2996     Cd2999   2.216       .  S
Zn2997     O3008   2.034       .  S
Zn2997     O3010   1.910       .  S
Zn2997     O3002   1.850       .  S
O2998      C3009   1.255       .  A
O2998     Cd3003   1.938       .  S
Cd2999     O3001   2.121       .  S
Cd2999     O3002   1.963       .  S
Cd3000     O3013   2.076       .  S
Cd3000     O3002   1.960       .  S
O3002     Cd3003   1.936       .  S
Cd3003     O3005   2.043       .  S
O3004      C3011   1.284       .  A
C3006      O3010   1.262       .  A
C3012      O3013   1.273       .  A
C3012      C3035   1.453       .  S
O3014      C3030   1.277       .  A
O3014     Zn3020   2.025       .  S
C3015      O3031   1.284       .  A
C3015      O3028   1.272       .  A
O3016      C3029   1.288       .  A
O3017      C3035   1.265       .  A
O3017     Cd3026   1.988       .  S
O3018      C3032   1.296       .  A
O3018     Cd3022   2.193       .  S
O3019      C3030   1.293       .  A
O3019     Cd3022   2.214       .  S
Zn3020     O3031   2.035       .  S
Zn3020     O3025   1.849       .  S
O3021      C3032   1.255       .  A
O3021     Cd3026   1.939       .  S
Cd3022     O3024   2.122       .  S
Cd3022     O3025   1.962       .  S
Cd3023     O3027   2.056       .  S
Cd3023     O3036   2.075   1_545  S
Cd3023     O3025   1.960   1_545  S
O3024      C3034   1.283       .  A
O3025     Cd3026   1.935       .  S
Cd3026     O3028   2.044       .  S
O3027      C3034   1.284   1_545  A
C3029      O3033   1.262       .  A
C3032      C3196   1.462       .  S
C3034      C3262   1.463   1_565  S
C3035      O3036   1.273       .  A
O3037      C3053   1.277       .  A
O3037     Zn3043   2.026       .  S
C3038      O3054   1.284   1_556  A
C3038      O3051   1.272       .  A
C3038      C3144   1.459       .  S
O3039      C3052   1.288       .  A
O3039     Cd3046   2.143       .  S
O3040      C3058   1.265       .  A
O3040     Cd3049   1.988       .  S
O3041      C3055   1.296       .  A
O3041     Cd3045   2.195       .  S
O3042      C3053   1.293       .  A
O3042     Cd3045   2.216       .  S
Zn3043     O3054   2.034       .  S
Zn3043     O3056   1.910       .  S
Zn3043     O3048   1.849   1_554  S
O3044      C3055   1.255   1_556  A
O3044     Cd3049   1.938       .  S
Cd3045     O3047   2.120       .  S
Cd3045     O3048   1.963   1_554  S
Cd3046     O3050   2.054       .  S
Cd3046     O3059   2.075       .  S
Cd3046     O3048   1.960       .  S
O3048     Cd3049   1.936       .  S
Cd3049     O3051   2.043       .  S
C3052      O3056   1.262   1_556  A
C3052      C3084   1.460       .  S
C3058      O3059   1.273       .  A
C3058      C3081   1.453       .  S
O3060      C3076   1.277       .  A
O3060     Zn3066   2.026       .  S
C3061      O3077   1.284       .  A
C3061      O3074   1.272       .  A
C3061      C3121   1.460       .  S
O3062      C3075   1.288       .  A
O3063      C3081   1.265       .  A
O3063     Cd3072   1.988       .  S
O3064      C3078   1.296       .  A
O3064     Cd3068   2.193       .  S
O3065      C3076   1.293       .  A
O3065     Cd3068   2.214       .  S
Zn3066     O3077   2.035       .  S
Zn3066     O3071   1.849       .  S
O3067      C3078   1.255       .  A
O3067     Cd3072   1.939       .  S
Cd3068     O3070   2.122       .  S
Cd3068     O3071   1.962       .  S
Cd3069     O3073   2.055       .  S
Cd3069     O3082   2.075   1_455  S
Cd3069     O3071   1.960   1_455  S
O3070      C3080   1.283       .  A
O3071     Cd3072   1.936       .  S
Cd3072     O3074   2.043       .  S
O3073      C3080   1.284   1_455  A
C3075      O3079   1.262       .  A
C3075      C3153   1.459   1_565  S
C3078      C3219   1.462       .  S
C3080      C3285   1.463       .  S
C3081      O3082   1.273       .  A
O3083      C3099   1.277       .  A
O3083     Zn3089   2.026       .  S
C3084      O3100   1.284   1_556  A
C3084      O3097   1.272       .  A
O3085      C3098   1.288       .  A
O3085     Cd3092   2.144       .  S
O3086      C3104   1.265       .  A
O3086     Cd3095   1.987       .  S
O3087      C3101   1.295       .  A
O3087     Cd3091   2.192       .  S
O3088      C3099   1.293       .  A
O3088     Cd3091   2.213       .  S
Zn3089     O3100   2.035       .  S
Zn3089     O3102   1.910       .  S
Zn3089     O3094   1.849   1_554  S
O3090      C3101   1.255   1_556  A
O3090     Cd3095   1.939       .  S
Cd3091     O3093   2.120       .  S
Cd3091     O3094   1.962   1_554  S
Cd3092     O3096   2.056       .  S
Cd3092     O3105   2.075       .  S
Cd3092     O3094   1.960       .  S
O3093      C3103   1.282   1_554  A
O3094     Cd3095   1.935       .  S
Cd3095     O3097   2.044       .  S
O3096      C3103   1.284       .  A
C3098      O3102   1.262   1_556  A
C3098      C3130   1.460       .  S
C3104      O3105   1.273       .  A
C3104      C3127   1.453       .  S
O3106      C3122   1.277       .  A
O3106     Zn3112   2.026       .  S
C3107      O3120   1.272       .  A
C3107      C3167   1.460       .  S
O3108      C3121   1.288       .  A
O3109      C3127   1.265       .  A
O3109     Cd3118   1.987       .  S
O3110      C3124   1.296       .  A
O3110     Cd3114   2.192       .  S
O3111      C3122   1.293       .  A
O3111     Cd3114   2.214       .  S
Zn3112     O3123   2.035       .  S
Zn3112     O3117   1.849       .  S
O3113      C3124   1.255       .  A
O3113     Cd3118   1.939       .  S
Cd3114     O3116   2.120       .  S
Cd3114     O3117   1.963       .  S
Cd3115     O3119   2.056       .  S
Cd3115     O3128   2.075       .  S
Cd3115     O3117   1.960       .  S
O3116      C3126   1.282       .  A
O3117     Cd3118   1.935       .  S
O3119      C3126   1.284       .  A
C3121      O3125   1.262       .  A
C3124      C3288   1.462       .  S
C3126      C3239   1.462       .  S
C3127      O3128   1.273       .  A
O3129      C3145   1.277       .  A
O3129     Zn3135   2.025       .  S
C3130      O3146   1.284   1_556  A
C3130      O3143   1.272       .  A
O3131      C3144   1.288       .  A
O3131     Cd3138   2.143       .  S
O3132      C3150   1.265       .  A
O3132     Cd3141   1.988       .  S
O3133      C3147   1.296       .  A
O3133     Cd3137   2.193       .  S
O3134      C3145   1.293       .  A
O3134     Cd3137   2.214       .  S
Zn3135     O3146   2.035       .  S
Zn3135     O3148   1.909       .  S
Zn3135     O3140   1.849   1_554  S
O3136      C3147   1.255   1_556  A
O3136     Cd3141   1.939       .  S
Cd3137     O3139   2.122       .  S
Cd3137     O3140   1.962   1_554  S
Cd3138     O3142   2.055       .  S
Cd3138     O3151   2.075       .  S
Cd3138     O3140   1.960       .  S
O3139      C3149   1.283   1_554  A
O3140     Cd3141   1.936       .  S
Cd3141     O3143   2.044       .  S
O3142      C3149   1.284       .  A
C3144      O3148   1.262   1_556  A
C3150      O3151   1.273       .  A
C3150      C3173   1.453       .  S
O3152      C3168   1.277       .  A
O3152     Zn3158   2.026       .  S
C3153      O3166   1.272       .  A
O3154      C3167   1.288       .  A
O3154     Cd3161   2.144       .  S
O3155      C3173   1.265       .  A
O3155     Cd3164   1.988       .  S
O3156      C3170   1.296       .  A
O3156     Cd3160   2.194       .  S
O3157      C3168   1.293       .  A
O3157     Cd3160   2.215       .  S
Zn3158     O3169   2.034       .  S
Zn3158     O3171   1.910       .  S
Zn3158     O3163   1.849       .  S
O3159      C3170   1.255       .  A
O3159     Cd3164   1.939       .  S
Cd3160     O3162   2.120       .  S
Cd3160     O3163   1.963       .  S
Cd3161     O3165   2.054       .  S
Cd3161     O3174   2.076       .  S
Cd3161     O3163   1.960       .  S
O3162      C3172   1.282       .  A
O3163     Cd3164   1.936       .  S
O3165      C3172   1.284       .  A
C3167      O3171   1.262       .  A
C3170      C3242   1.463       .  S
C3172      C3216   1.462       .  S
C3173      O3174   1.273       .  A
O3175      C3191   1.284       .  A
O3175     Zn3181   2.035       .  S
C3176      O3192   1.277       .  A
C3176      O3189   1.293       .  A
O3177      C3190   1.288       .  A
O3177     Cd3184   2.144       .  S
O3178      C3196   1.282       .  A
O3178     Cd3187   2.120       .  S
O3179      C3193   1.255       .  A
O3179     Cd3183   1.939       .  S
O3180      C3191   1.272       .  A
O3180     Cd3183   2.044       .  S
Zn3181     O3192   2.026       .  S
Zn3181     O3194   1.909       .  S
Zn3181     O3186   1.849       .  S
O3182      C3193   1.295       .  A
O3182     Cd3187   2.192       .  S
Cd3183     O3185   1.987       .  S
Cd3183     O3186   1.936       .  S
Cd3184     O3188   2.075       .  S
Cd3184     O3197   2.056       .  S
Cd3184     O3186   1.960       .  S
O3185      C3195   1.265       .  A
O3186     Cd3187   1.963       .  S
Cd3187     O3189   2.214       .  S
O3188      C3195   1.273       .  A
C3190      O3194   1.262       .  A
C3190      C3306   1.460       .  S
C3191      C3259   1.460       .  S
C3195      C3218   1.453       .  S
C3196      O3197   1.284       .  A
O3198      C3214   1.284       .  A
O3198     Zn3204   2.035       .  S
C3199      O3215   1.277       .  A
C3199      O3212   1.293       .  A
O3200      C3213   1.288       .  A
O3200     Cd3207   2.143       .  S
O3201      C3219   1.282       .  A
O3201     Cd3210   2.120       .  S
O3202      C3216   1.255       .  A
O3202     Cd3206   1.939       .  S
O3203      C3214   1.272       .  A
O3203     Cd3206   2.044       .  S
Zn3204     O3215   2.026       .  S
Zn3204     O3217   1.910       .  S
Zn3204     O3209   1.849       .  S
O3205      C3216   1.295       .  A
O3205     Cd3210   2.192       .  S
Cd3206     O3208   1.988       .  S
Cd3206     O3209   1.935       .  S
Cd3207     O3211   2.075       .  S
Cd3207     O3220   2.056       .  S
Cd3207     O3209   1.960       .  S
O3208      C3218   1.265       .  A
O3209     Cd3210   1.963       .  S
Cd3210     O3212   2.213       .  S
O3211      C3218   1.273       .  A
C3213      O3217   1.262       .  A
C3213      C3237   1.460       .  S
C3214      C3282   1.460       .  S
C3219      O3220   1.284       .  A
O3221      C3237   1.284       .  A
O3221     Zn3227   2.034       .  S
C3222      O3238   1.277       .  A
C3222      O3235   1.293       .  A
O3223      C3236   1.288       .  A
O3223     Cd3230   2.143       .  S
O3224      C3242   1.283       .  A
O3224     Cd3233   2.121       .  S
O3225      C3239   1.255       .  A
O3226      C3237   1.272       .  A
O3226     Cd3229   2.044       .  S
Zn3227     O3238   2.025       .  S
Zn3227     O3240   1.909       .  S
Zn3227     O3232   1.849       .  S
O3228      C3239   1.296       .  A
O3228     Cd3233   2.193       .  S
Cd3229     O3231   1.988       .  S
Cd3229     O3232   1.936       .  S
Cd3230     O3234   2.075       .  S
Cd3230     O3232   1.960       .  S
O3231      C3241   1.265       .  A
O3234      C3241   1.273       .  A
C3236      O3240   1.262       .  A
C3236      C3283   1.459       .  S
C3242      O3243   1.284       .  A
O3244      C3260   1.284       .  A
O3244     Zn3250   2.034       .  S
C3245      O3261   1.277       .  A
C3245      O3258   1.293       .  A
O3246      C3259   1.288       .  A
O3246     Cd3253   2.143       .  S
O3247      C3265   1.282       .  A
O3248      C3262   1.255       .  A
O3249      C3260   1.272       .  A
O3249     Cd3252   2.043       .  S
Zn3250     O3261   2.027       .  S
Zn3250     O3263   1.910       .  S
Zn3250     O3255   1.850       .  S
O3251      C3262   1.296   1_565  A
Cd3252     O3254   1.988       .  S
Cd3252     O3255   1.936       .  S
Cd3253     O3257   2.075       .  S
Cd3253     O3266   2.054       .  S
Cd3253     O3255   1.960       .  S
O3254      C3264   1.265       .  A
O3255     Cd3256   1.963       .  S
Cd3256     O3258   2.216       .  S
O3257      C3264   1.273       .  A
C3259      O3263   1.262       .  A
C3260      C3305   1.460       .  S
O3267      C3283   1.284       .  A
O3267     Zn3273   2.034       .  S
C3268      O3284   1.277       .  A
C3268      O3281   1.293       .  A
O3269      C3282   1.288       .  A
O3269     Cd3276   2.143       .  S
O3270      C3288   1.282       .  A
O3271      C3285   1.255   1_455  A
O3272      C3283   1.272       .  A
O3272     Cd3275   2.043       .  S
Zn3273     O3284   2.026       .  S
Zn3273     O3286   1.910       .  S
Zn3273     O3278   1.850       .  S
O3274      C3285   1.296       .  A
Cd3275     O3277   1.988       .  S
Cd3275     O3278   1.936       .  S
Cd3276     O3280   2.075       .  S
Cd3276     O3278   1.960       .  S
O3277      C3287   1.265       .  A
O3278     Cd3279   1.963       .  S
Cd3279     O3281   2.216       .  S
O3280      C3287   1.273       .  A
C3282      O3286   1.262       .  A
C3288      O3289   1.284   1_655  A
O3290      C3306   1.284       .  A
O3290     Zn3296   2.035       .  S
C3291      O3307   1.277       .  A
C3291      O3304   1.293       .  A
O3292      C3305   1.288       .  A
O3292     Cd3299   2.143       .  S
O3293      C3311   1.283       .  A
O3293     Cd3302   2.122       .  S
O3294      C3308   1.255       .  A
O3295      C3306   1.272       .  A
O3295     Cd3298   2.043       .  S
Zn3296     O3307   2.026       .  S
Zn3296     O3309   1.910       .  S
Zn3296     O3301   1.850       .  S
O3297      C3308   1.296       .  A
O3297     Cd3302   2.193       .  S
Cd3298     O3300   1.988       .  S
Cd3298     O3301   1.936       .  S
Cd3299     O3303   2.075       .  S
Cd3299     O3301   1.960       .  S
O3300      C3310   1.265       .  A
O3303      C3310   1.273       .  A
C3305      O3309   1.262       .  A
C3311      O3312   1.284       .  A
