geometry optimzed in LAMMPS
_audit_creation_date              2020-11-30 
_audit_creation_method            'lammps2cif' 
_symmetry_space_group_name_H-M    'P1' 
_symmetry_Int_Tables_number       1 
_symmetry_cell_setting            triclinic 
loop_ 
_symmetry_equiv_pos_as_xyz 
  x,y,z 
_cell_length_a                    52.096578244739725 
_cell_length_b                    52.38866131580763 
_cell_length_c                    23.984228342028487 
_cell_angle_alpha                 90.43615380253262 
_cell_angle_beta                  89.1309051307962 
_cell_angle_gamma                 125.27742272546914 
loop_ 
_atom_site_label 
_atom_site_type_symbol 
_atom_site_fract_x 
_atom_site_fract_y 
_atom_site_fract_z 
_atom_site_charge 
Zr1        Zr  0.66997603  0.56205245  0.49094343     2.17510
O2          O  0.71192143  0.59802089  0.42579703    -0.51920
O3          O  0.63851187  0.51928444  0.42248110    -0.75120
O4          O  0.71408251  0.55573635  0.48940019    -0.81910
O5          O  0.61900099  0.59427623  0.46589776    -0.83650
O6          O  0.71505160  0.53569969  0.57329027    -0.79280
O7          O  0.65486185  0.58864647  0.42332479    -0.90910
O8          O  0.60615131  0.47523217  0.47297846    -0.76870
O9          O  0.65010158  0.51532845  0.54504431    -0.86360
O10         O  0.61553409  0.53880911  0.50643289    -0.86050
O11         O  0.69642744  0.57593831  0.58068756    -0.72810
O12         O  0.66803418  0.60028011  0.54404727    -0.84950
Zr13       Zr  0.62092930  0.54575981  0.69542795     2.26420
Zr14       Zr  0.67496398  0.52859550  0.63551554     2.06270
Zr15       Zr  0.61278871  0.57596177  0.55930321     2.10050
Zr16       Zr  0.59561182  0.49226508  0.55791630     1.78760
O17         O  0.62074433  0.62650367  0.55632920    -0.93750
O18         O  0.59094442  0.44449873  0.58140573    -0.41560
O19         O  0.59206803  0.52935017  0.61011908    -0.78190
O20         O  0.62028315  0.50564412  0.64580616    -0.96880
O21         O  0.67524421  0.56811239  0.68597945    -0.90180
O22         O  0.64109749  0.59173373  0.64210215    -0.93020
C23         C  0.61680574  0.48965358  0.42672451     1.00730
C24         C  0.63530811  0.59671868  0.42341511     1.13660
C25         C  0.72580992  0.54628628  0.52425966     1.04440
O26         O  0.67600584  0.48273950  0.63117395    -0.95180
O27         O  0.64763013  0.49437826  0.71993348    -0.90920
O28         O  0.63182401  0.52068204  0.76686800    -0.84070
C29         C  0.63254108  0.49671284  0.76095565     1.11080
O30         O  0.74635888  0.64975109  0.58746785    -0.97150
Zr31       Zr  0.69507285  0.61437236  0.63235121     1.88940
O32         O  0.64198078  0.58813820  0.76271031    -0.73800
O33         O  0.72019154  0.55399925  0.69666025    -0.53060
O34         O  0.73611760  0.62561359  0.69673839    -0.97740
O35         O  0.70623110  0.66507281  0.60883561    -0.54960
O36         O  0.68093465  0.63169741  0.71606459    -0.74320
C37         C  0.66068631  0.61796260  0.75629311     0.98030
O38         O  0.56602042  0.50481201  0.71652029    -0.63140
O39         O  0.55899394  0.54737497  0.52580618    -0.57940
O40         O  0.59191601  0.56573646  0.72128477    -0.94620
O41         O  0.58021088  0.57422124  0.63555634    -0.93050
O42         O  0.55075637  0.47687545  0.50019172    -0.93410
O43         O  0.54383075  0.45372405  0.59834201    -0.92190
C44         C  0.57620439  0.57088723  0.68901379     1.16870
H45         H  0.60444776  0.53415668  0.47180098     0.32810
H46         H  0.60801549  0.48605294  0.66555993     0.43670
H47         H  0.63751648  0.60632597  0.65826824     0.37190
H48         H  0.71860291  0.58594317  0.57440681     0.33670
H49         H  0.57640405  0.42896421  0.55345663     0.25460
H50         H  0.72587410  0.53898303  0.69928109     0.31400
H51         H  0.74055897  0.64385354  0.71852727     0.37310
H52         H  0.54341397  0.45602667  0.48539874     0.31770
H53         H  0.55669249  0.56369607  0.51191844     0.30640
H54         H  0.59960384  0.62147949  0.54936306     0.32320
H55         H  0.71746852  0.67851866  0.64146587     0.31290
H56         H  0.54770587  0.44598983  0.63248265     0.35290
H57         H  0.55387333  0.50905447  0.69189290     0.28020
H58         H  0.71499661  0.58477822  0.40096675     0.32260
H59         H  0.75902512  0.66698165  0.61429927     0.35110
H60         H  0.55870511  0.53636548  0.49185984     0.27720
H61         H  0.56265388  0.48593534  0.69919861     0.40590
H62         H  0.66869495  0.47418091  0.59325200     0.30640
H63         H  0.61165882  0.44893694  0.57139506     0.38260
H64         H  0.68545389  0.66166743  0.61013630     0.30110
H65         H  0.73742886  0.57153047  0.67420963     0.30170
H66         H  0.73120302  0.61000871  0.44841476     0.30440
Zr67       Zr  0.55793518  0.67289913  0.17522241     2.17510
O68         O  0.59061209  0.71325962  0.24379456    -0.51920
O69         O  0.51256841  0.64074507  0.24085151    -0.75120
O70         O  0.55069024  0.71657790  0.17447419    -0.81910
O71         O  0.59714949  0.62815772  0.19926826    -0.83650
O72         O  0.52720044  0.71380906  0.09280976    -0.79280
O73         O  0.58485238  0.65842632  0.24372646    -0.90910
O74         O  0.47070670  0.60582897  0.18921250    -0.76870
O75         O  0.50986253  0.64991391  0.12346623    -0.86360
O76         O  0.53911417  0.61934619  0.16224074    -0.86050
O77         O  0.57063097  0.69825225  0.08392434    -0.72810
O78         O  0.60018525  0.67669538  0.12151939    -0.84950
Zr79       Zr  0.54454395  0.62732772  0.96815522     2.26420
Zr80       Zr  0.52220639  0.67459890  0.03223249     2.06270
Zr81       Zr  0.57947832  0.62312331  0.10627852     2.10050
Zr82       Zr  0.49284135  0.59762186  0.10928441     1.78760
O83         O  0.63413313  0.64166494  0.11537663    -0.93750
O84         O  0.43978483  0.58004096  0.08439970    -0.41560
O85         O  0.54300569  0.62977241  0.06658022    -0.78190
O86         O  0.50150258  0.62045547  0.02013956    -0.96880
O87         O  0.56394590  0.68023618  0.97664025    -0.90180
O88         O  0.59210692  0.64742588  0.01784262    -0.93020
C89         C  0.48312890  0.61800046  0.23606534     1.00730
C90         C  0.59605704  0.64156583  0.24287313     1.13660
C91         C  0.53909588  0.72645693  0.13998325     1.04440
O92         O  0.47498357  0.67361750  0.03893664    -0.95180
O93         O  0.48771892  0.64818749  0.95001554    -0.90920
O94         O  0.50895681  0.62680340  0.90239608    -0.84070
C95         C  0.48789252  0.63214117  0.90882121     1.11080
O96         O  0.64619530  0.75280195  0.06904763    -0.97150
Zr97       Zr  0.61110163  0.70061616  0.02940318     1.88940
O98         O  0.58378786  0.65709604  0.89642917    -0.73800
O99         O  0.54576624  0.71972945  0.97058550    -0.53060
O100        O  0.62129703  0.74193307  0.96657956    -0.97740
O101        O  0.66277318  0.71298693  0.05062321    -0.54960
O102        O  0.62855791  0.68778407  0.94414003    -0.74320
C103        C  0.61341544  0.67077928  0.90152879     0.98030
O104        O  0.50719193  0.57258496  0.94317509    -0.63140
O105        O  0.54529908  0.56711970  0.12598423    -0.57940
O106        O  0.56298138  0.59563261  0.95290293    -0.94620
O107        O  0.57932173  0.58992612  0.03596522    -0.93050
O108        O  0.48198155  0.55408763  0.16636743    -0.93410
O109        O  0.47975140  0.55097198  0.05944972    -0.92190
C110        C  0.57298830  0.58360988  0.98411090     1.16870
H111        H  0.53510438  0.60835059  0.19698724     0.32810
H112        H  0.48176715  0.60722738  0.00153283     0.43670
H113        H  0.60719455  0.64477182  0.00025586     0.37190
H114        H  0.57949312  0.72009385  0.08936195     0.33670
H115        H  0.42604681  0.56500937  0.11404944     0.25460
H116        H  0.53003954  0.72461168  0.96924739     0.31400
H117        H  0.63865125  0.74589906  0.94187359     0.37310
H118        H  0.46274927  0.54759003  0.18793745     0.31770
H119        H  0.55950052  0.56031751  0.12743152     0.30640
H120        H  0.63407678  0.62306352  0.10733538     0.32320
H121        H  0.67620167  0.72512989  0.01807545     0.31290
H122        H  0.45743210  0.54024769  0.04920120     0.35290
H123        H  0.50831466  0.57233908  0.90192338     0.28020
H124        H  0.57616355  0.71604917  0.26581841     0.32260
H125        H  0.66448536  0.76442276  0.04320757     0.35110
H126        H  0.53850605  0.56567499  0.16527011     0.27720
H127        H  0.48622683  0.56799933  0.95123572     0.40590
H128        H  0.46193687  0.65779893  0.06804588     0.30640
H129        H  0.43924475  0.59841628  0.09088249     0.38260
H130        H  0.66015814  0.69275164  0.04770962     0.30110
H131        H  0.56334309  0.73713305  0.99215012     0.30170
H132        H  0.60400344  0.73279990  0.22200873     0.30440
Zr133      Zr  0.15533105  0.67284160  0.83017878     2.17510
O134        O  0.17515497  0.72358496  0.78934913    -0.51920
O135        O  0.16580610  0.65025910  0.75200294    -0.75120
O136        O  0.21249492  0.69554184  0.82631688    -0.81910
O137        O  0.06460972  0.61895571  0.79782823    -0.83650
O138        O  0.23603481  0.70974738  0.91064418    -0.79280
O139        O  0.11167204  0.65676865  0.75845489    -0.90910
O140        O  0.18499912  0.62936148  0.80265669    -0.76870
O141        O  0.18046516  0.65317597  0.87803508    -0.86360
O142        O  0.11870615  0.61770028  0.83352836    -0.86050
O143        O  0.17135204  0.69541127  0.92393897    -0.72810
O144        O  0.11315481  0.66478722  0.88847016    -0.84950
Zr145      Zr  0.11842044  0.60843907  0.02078248     2.26420
Zr146      Zr  0.19563710  0.67367651  0.97088044     2.06270
Zr147      Zr  0.07602608  0.60885500  0.88849433     2.10050
Zr148      Zr  0.14615392  0.59862988  0.87455878     1.78760
O149        O  0.03413805  0.61640393  0.88488701    -0.93750
O150        O  0.18786300  0.59144470  0.88846312    -0.41560
O151        O  0.10189662  0.58714585  0.92876137    -0.78190
O152        O  0.16160847  0.61847206  0.96667764    -0.96880
O153        O  0.15340393  0.66372568  0.02684669    -0.90180
O154        O  0.09347641  0.63064239  0.97995225    -0.93020
C155        C  0.17849306  0.63548535  0.75591481     1.00730
C156        C  0.08087204  0.63654114  0.75668419     1.13660
C157        C  0.23686143  0.70741333  0.85813759     1.04440
O158        O  0.24236070  0.67391349  0.97288749    -0.95180
O159        O  0.20521001  0.65068640  0.04994566    -0.90920
O160        O  0.15670257  0.61278433  0.08385057    -0.84070
C161        C  0.18679448  0.62804268  0.08357897     1.11080
O162        O  0.14499426  0.73665066  0.95304214    -0.97150
Zr163      Zr  0.12855642  0.68482391  0.98313571     1.88940
O164        O  0.09475689  0.61999708  0.09476674    -0.73800
O165        O  0.21952477  0.71960455  0.03061605    -0.53060
O166        O  0.16538002  0.72531359  0.04793463    -0.97740
O167        O  0.08414419  0.68843733  0.97535332    -0.54960
O168        O  0.09804326  0.66389177  0.07217403    -0.74320
C169        C  0.08801913  0.63970655  0.10351521     0.98030
O170        O  0.11045279  0.56033886  0.05463498    -0.63140
O171        O  0.04858166  0.55711970  0.84621625    -0.57940
O172        O  0.06964278  0.56984892  0.97946255    -0.94620
O173        O  0.03461175  0.57702501  0.95523253    -0.93050
O174        O  0.12080311  0.56110825  0.79901506    -0.93410
O175        O  0.12500903  0.54552540  0.90427574    -0.92190
C176        C  0.04609948  0.56987209  0.99288866     1.16870
H177        H  0.11112998  0.60897430  0.79720379     0.32810
H178        H  0.17087580  0.60862691  0.98202947     0.43670
H179        H  0.07529056  0.62643122  0.99994498     0.37190
H180        H  0.18644621  0.71776307  0.92061512     0.33670
H181        H  0.18810209  0.58110493  0.85390803     0.25460
H182        H  0.23968109  0.72345866  0.04197158     0.31400
H183        H  0.15193502  0.72605485  0.07657596     0.37310
H184        H  0.13639609  0.55705097  0.78691465     0.31770
H185        H  0.04913174  0.56077291  0.80563964     0.30640
H186        H  0.01568906  0.59641536  0.87053167     0.32320
H187        H  0.08214782  0.69564929  0.01240827     0.31290
H188        H  0.13259099  0.54772586  0.94279379     0.35290
H189        H  0.09343160  0.54388834  0.03099775     0.28020
H190        H  0.18831631  0.72539703  0.75727121     0.32260
H191        H  0.13864327  0.74481763  0.98359599     0.35110
H192        H  0.06266030  0.55034273  0.85080147     0.27720
H193        H  0.12882500  0.56111186  0.04060722     0.40590
H194        H  0.23953471  0.65986311  0.94207206     0.30640
H195        H  0.20757483  0.61275370  0.88638977     0.38260
H196        H  0.06546643  0.66650730  0.97293972     0.30110
H197        H  0.22574086  0.73707995  0.00501163     0.30170
H198        H  0.19044188  0.73890408  0.81676608     0.30440
Zr199      Zr  0.90743600  0.55627253  0.51821328     2.17510
O200        O  0.91597275  0.59913305  0.57534912    -0.51920
O201        O  0.88584935  0.51641518  0.59140568    -0.75120
O202        O  0.85816725  0.55401893  0.52610814    -0.81910
O203        O  0.98834320  0.56971325  0.53808687    -0.83650
O204        O  0.83143873  0.53490167  0.44433045    -0.79280
O205        O  0.95734805  0.58193126  0.57895829    -0.90910
O206        O  0.85108297  0.47225180  0.54508998    -0.76870
O207        O  0.86501086  0.51151735  0.46837521    -0.86360
O208        O  0.92032436  0.51951325  0.50770220    -0.86050
O209        O  0.90049930  0.57179385  0.42677763    -0.72810
O210        O  0.95351441  0.58261049  0.45961393    -0.84950
Zr211      Zr  0.91887647  0.51877116  0.30999339     2.26420
Zr212      Zr  0.85919732  0.52603789  0.37670237     2.06270
Zr213      Zr  0.96544831  0.54500731  0.44935350     2.10050
Zr214      Zr  0.87772071  0.47505578  0.45960962     1.78760
O215        O  0.02097824  0.58454345  0.43191105    -0.93750
O216        O  0.82206994  0.43399349  0.44638585    -0.41560
O217        O  0.92343341  0.50052213  0.40101688    -0.78190
O218        O  0.87261470  0.48972411  0.36853866    -0.96880
O219        O  0.90508710  0.55459301  0.31899625    -0.90180
O220        O  0.96111921  0.56305573  0.36174998    -0.93020
C221        C  0.86535145  0.48667250  0.58947042     1.00730
C222        C  0.98284543  0.58232370  0.57806660     1.13660
C223        C  0.83444600  0.54494089  0.49405044     1.04440
O224        O  0.80201775  0.49252516  0.37294121    -0.95180
O225        O  0.83547474  0.48916786  0.29729629    -0.90920
O226        O  0.87792817  0.50398764  0.24371215    -0.84070
C227        C  0.84821465  0.48687784  0.25284802     1.11080
O228        O  0.95269757  0.64446926  0.40825197    -0.97150
Zr229      Zr  0.94712746  0.59842550  0.36920140     1.88940
O230        O  0.95741871  0.55921581  0.24458984    -0.73800
O231        O  0.85678090  0.56303652  0.32049784    -0.53060
O232        O  0.92598945  0.61777726  0.30559241    -0.97740
O233        O  0.00179874  0.64112293  0.38640777    -0.54960
O234        O  0.97717379  0.60689187  0.28302861    -0.74320
C235        C  0.97730347  0.58921509  0.24562731     0.98030
O236        O  0.90266490  0.46909506  0.26739974    -0.63140
O237        O  0.98133666  0.51312870  0.48619225    -0.57940
O238        O  0.95949567  0.51353163  0.27931717    -0.94620
O239        O  0.95187556  0.51276179  0.36778764    -0.93050
O240        O  0.89832578  0.45219809  0.51535918    -0.93410
O241        O  0.86603791  0.42562660  0.42475735    -0.92190
C242        C  0.96981281  0.51641703  0.32761961     1.16870
H243        H  0.92543245  0.51410627  0.54213877     0.32810
H244        H  0.85700319  0.47011698  0.35117385     0.43670
H245        H  0.98141229  0.57314950  0.34407340     0.37190
H246        H  0.89425938  0.58579313  0.43235635     0.33670
H247        H  0.81564495  0.42025043  0.47942688     0.25460
H248        H  0.83625879  0.55009918  0.30164447     0.31400
H249        H  0.94379053  0.63234594  0.28040132     0.37310
H250        H  0.87969546  0.43441105  0.53499811     0.31770
H251        H  0.00426584  0.52795089  0.49067245     0.30640
H252        H  0.03208380  0.58276057  0.46309952     0.32320
H253        H  0.00871287  0.65481775  0.35319591     0.31290
H254        H  0.86971850  0.42878291  0.38398367     0.35290
H255        H  0.90830069  0.45902213  0.29463853     0.28020
H256        H  0.89955612  0.58905518  0.60495651     0.32260
H257        H  0.96426632  0.66104549  0.37963563     0.35110
H258        H  0.97266408  0.50782227  0.52467863     0.27720
H259        H  0.87944794  0.45591477  0.26883653     0.40590
H260        H  0.79591666  0.47266011  0.39041068     0.30640
H261        H  0.81144843  0.44456861  0.45172016     0.38260
H262        H  0.01339899  0.63142820  0.38348960     0.30110
H263        H  0.85408235  0.57556415  0.34793459     0.30170
H264        H  0.90991293  0.61016383  0.55153919     0.30440
Zr265      Zr  0.66340416  0.15361161  0.81982673     2.17510
O266        O  0.71230804  0.17405197  0.86858493    -0.51920
O267        O  0.64423324  0.17299183  0.89076022    -0.75120
O268        O  0.69037516  0.20690829  0.78516861    -0.81910
O269        O  0.60888336  0.06431785  0.85396884    -0.83650
O270        O  0.70397370  0.24117811  0.72133037    -0.79280
O271        O  0.64753788  0.11052976  0.89214895    -0.90910
O272        O  0.62688223  0.19197740  0.83105905    -0.76870
O273        O  0.64731938  0.18196597  0.77028381    -0.86360
O274        O  0.60723996  0.11916410  0.82008562    -0.86050
O275        O  0.68537446  0.16728509  0.72387681    -0.72810
O276        O  0.65524231  0.11101797  0.76329184    -0.84950
Zr277      Zr  0.60117232  0.11920732  0.62494023     2.26420
Zr278      Zr  0.66707984  0.19479649  0.67444487     2.06270
Zr279      Zr  0.59935960  0.07736944  0.76468887     2.10050
Zr280      Zr  0.59270572  0.14866252  0.77108855     1.78760
O281        O  0.61096069  0.03858888  0.76789332    -0.93750
O282        O  0.58014830  0.18582878  0.75048145    -0.41560
O283        O  0.61247629  0.12442060  0.72137992    -0.78190
O284        O  0.61103896  0.16256776  0.67708580    -0.96880
O285        O  0.65655943  0.15237469  0.61767378    -0.90180
O286        O  0.61775835  0.08946808  0.66864462    -0.93020
C287        C  0.63174617  0.18761871  0.88067227     1.00730
C288        C  0.62710846  0.07999805  0.89429328     1.13660
C289        C  0.70552304  0.23560935  0.77109827     1.04440
O290        O  0.66914427  0.24244735  0.67298469    -0.95180
O291        O  0.64671254  0.20580234  0.59429889    -0.90920
O292        O  0.60730705  0.15850431  0.56106704    -0.84070
C293        C  0.62407286  0.18853716  0.56083960     1.11080
O294        O  0.72464825  0.13755527  0.69181095    -0.97150
Zr295      Zr  0.67302819  0.12386603  0.66564035     1.88940
O296        O  0.61054090  0.09355256  0.55053024    -0.73800
O297        O  0.71433392  0.21461347  0.61808235    -0.53060
O298        O  0.71518848  0.15880020  0.60016016    -0.97740
O299        O  0.67366382  0.07797559  0.67628632    -0.54960
O300        O  0.65151632  0.09265126  0.57851887    -0.74320
C301        C  0.62861759  0.08429379  0.54517092     0.98030
O302        O  0.55162330  0.11167859  0.60002875    -0.63140
O303        O  0.54711341  0.05787892  0.80068216    -0.57940
O304        O  0.55999744  0.07681587  0.67730298    -0.94620
O305        O  0.55733739  0.03721495  0.70990907    -0.93050
O306        O  0.55672205  0.12503384  0.85071979    -0.93410
O307        O  0.54041596  0.11293502  0.73282294    -0.92190
C308        C  0.55519400  0.05064827  0.66876980     1.16870
H309        H  0.59831046  0.11287985  0.85722064     0.32810
H310        H  0.60175779  0.17224479  0.66158932     0.43670
H311        H  0.61183796  0.07046991  0.65022141     0.37190
H312        H  0.70804315  0.18086386  0.72590346     0.33670
H313        H  0.56264773  0.18028085  0.77633917     0.25460
H314        H  0.71884175  0.23394066  0.60082947     0.31400
H315        H  0.71285983  0.14515813  0.56894308     0.37310
H316        H  0.54181737  0.13079642  0.84606550     0.31770
H317        H  0.54879703  0.05752614  0.84169746     0.30640
H318        H  0.59029476  0.01845430  0.77418530     0.32320
H319        H  0.68252128  0.07632570  0.64073018     0.31290
H320        H  0.53467050  0.12656638  0.71800008     0.35290
H321        H  0.53506512  0.09623320  0.62613739     0.28020
H322        H  0.70977953  0.18193494  0.90442401     0.32260
H323        H  0.73132607  0.12944737  0.66170984     0.35110
H324        H  0.54449426  0.07481457  0.79374780     0.27720
H325        H  0.55432947  0.13138733  0.61046497     0.40590
H326        H  0.65018491  0.23711285  0.69422812     0.30640
H327        H  0.59825716  0.20634984  0.76373342     0.38260
H328        H  0.65128848  0.05996978  0.67572676     0.30110
H329        H  0.73133522  0.22206800  0.64539543     0.30170
H330        H  0.72833883  0.19309404  0.84754261     0.30440
Zr331      Zr  0.54433037  0.90639861  0.13304139     2.17510
O332        O  0.58458096  0.91321799  0.06884029    -0.51920
O333        O  0.50315027  0.88396262  0.06149853    -0.75120
O334        O  0.54499532  0.85859036  0.13025031    -0.81910
O335        O  0.56644075  0.99198617  0.11643914    -0.83650
O336        O  0.52648140  0.83215503  0.21312622    -0.79280
O337        O  0.57283147  0.95710531  0.07416851    -0.90910
O338        O  0.45994468  0.85118391  0.11229559    -0.76870
O339        O  0.49771696  0.86524875  0.18225756    -0.86360
O340        O  0.51010947  0.92273603  0.14364531    -0.86050
O341        O  0.55862761  0.89822155  0.22426661    -0.72810
O342        O  0.57280669  0.95233571  0.19073832    -0.84950
Zr343      Zr  0.50771200  0.91940440  0.33637990     2.26420
Zr344      Zr  0.51111893  0.85749495  0.27341731     2.06270
Zr345      Zr  0.53764842  0.96763033  0.20181837     2.10050
Zr346      Zr  0.46382244  0.88166669  0.19082747     1.78760
O347        O  0.57919448  0.02325752  0.20997236    -0.93750
O348        O  0.41631246  0.82894769  0.20423638    -0.41560
O349        O  0.49108393  0.92702607  0.24855207    -0.78190
O350        O  0.47705621  0.87377688  0.28035327    -0.96880
O351        O  0.54140851  0.90300793  0.32978861    -0.90180
O352        O  0.55350940  0.96096403  0.28901792    -0.93020
C353        C  0.47319870  0.86363253  0.06582386     1.00730
C354        C  0.57716174  0.98446242  0.07602859     1.13660
C355        C  0.53779266  0.83588228  0.16396193     1.04440
O356        O  0.47317483  0.80110485  0.26554021    -0.95180
O357        O  0.47289000  0.83387994  0.35285640    -0.90920
O358        O  0.48365454  0.87610310  0.40156712    -0.84070
C359        C  0.46831501  0.84652564  0.39472865     1.11080
O360        O  0.63207844  0.94649889  0.24326587    -0.97150
Zr361      Zr  0.58715350  0.94443593  0.28081074     1.88940
O362        O  0.54897159  0.95247178  0.40471470    -0.73800
O363        O  0.54265837  0.85081979  0.33732501    -0.53060
O364        O  0.60430327  0.92262837  0.34776024    -0.97740
O365        O  0.63185131  0.99767766  0.25944175    -0.54960
O366        O  0.59699081  0.97577564  0.36420428    -0.74320
C367        C  0.57875334  0.97415418  0.40282120     0.98030
O368        O  0.46385956  0.91228073  0.39025131    -0.63140
O369        O  0.50395949  0.97905010  0.15588396    -0.57940
O370        O  0.49733827  0.95704174  0.34987714    -0.94620
O371        O  0.52369961  0.98900247  0.27581581    -0.93050
O372        O  0.44757311  0.90498174  0.12509105    -0.93410
O373        O  0.41710302  0.87592113  0.22894973    -0.92190
C374        C  0.50912862  0.98219274  0.32299620     1.16870
H375        H  0.50572512  0.92803232  0.10824261     0.32810
H376        H  0.45703621  0.85903120  0.29795722     0.43670
H377        H  0.56327797  0.98084098  0.30753393     0.37190
H378        H  0.57237897  0.89159758  0.21910906     0.33670
H379        H  0.40467721  0.82372737  0.16891661     0.25460
H380        H  0.53021837  0.82798100  0.34381799     0.31400
H381        H  0.62049931  0.94072647  0.37010665     0.37310
H382        H  0.42430844  0.89154177  0.12590299     0.31770
H383        H  0.50237447  0.97213914  0.11678554     0.30640
H384        H  0.56909665  0.03380297  0.19995294     0.32320
H385        H  0.64546007  0.00464009  0.29255888     0.31290
H386        H  0.42039998  0.87824844  0.26974623     0.35290
H387        H  0.44519216  0.89136915  0.37991548     0.28020
H388        H  0.57330174  0.89541327  0.04260950     0.32260
H389        H  0.64891115  0.95814566  0.27109947     0.35110
H390        H  0.48277985  0.96407056  0.17227532     0.27720
H391        H  0.46785155  0.91034376  0.42965155     0.40590
H392        H  0.45672227  0.79841238  0.24084924     0.30640
H393        H  0.42373983  0.81531039  0.20470110     0.38260
H394        H  0.62308872  0.01015928  0.26048728     0.30110
H395        H  0.56096542  0.85555770  0.31462351     0.30170
H396        H  0.59766666  0.90916354  0.09132320     0.30440
Zr397      Zr  0.48904932  0.13725299  0.12508926     2.17510
O398        O  0.44680677  0.13011055  0.06872069    -0.51920
O399        O  0.52923228  0.16471643  0.05200489    -0.75120
O400        O  0.48777352  0.18367636  0.12801474    -0.81910
O401        O  0.48964645  0.06996147  0.07696389    -0.83650
O402        O  0.50730639  0.20846581  0.21146521    -0.79280
O403        O  0.46025429  0.08804039  0.06480430    -0.90910
O404        O  0.56962613  0.19929596  0.10456703    -0.76870
O405        O  0.53374288  0.17894314  0.17583728    -0.86360
O406        O  0.52761830  0.12603499  0.12353515    -0.86050
O407        O  0.47356423  0.14043247  0.21993390    -0.72810
O408        O  0.46403912  0.08902723  0.17572804    -0.84950
Zr409      Zr  0.53049479  0.11968131  0.31804248     2.26420
Zr410      Zr  0.51942937  0.18072928  0.27064303     2.06270
Zr411      Zr  0.50257458  0.07778693  0.17395252     2.10050
Zr412      Zr  0.57178254  0.16809690  0.17413295     1.78760
O413        O  0.45326840  0.02692709  0.19271754    -0.93750
O414        O  0.61678155  0.22181329  0.19038275    -0.41560
O415        O  0.54335062  0.12086495  0.22285047    -0.78190
O416        O  0.55714796  0.16910309  0.26917150    -0.96880
O417        O  0.49389518  0.13287906  0.32138447    -0.90180
O418        O  0.48566199  0.07847659  0.26795208    -0.93020
C419        C  0.55826077  0.18748458  0.05725788     1.00730
C420        C  0.46716638  0.06833495  0.05265107     1.13660
C421        C  0.49647818  0.20613853  0.16290732     1.04440
O422        O  0.55865493  0.23704277  0.27420201    -0.95180
O423        O  0.55288552  0.20235794  0.35349778    -0.90920
O424        O  0.55717043  0.16355839  0.38051853    -0.84070
C425        C  0.56352544  0.19093362  0.38541962     1.11080
O426        O  0.40192778  0.08439443  0.23355053    -0.97150
Zr427      Zr  0.44948385  0.09243930  0.27038063     1.88940
O428        O  0.48974625  0.07640914  0.37896095    -0.73800
O429        O  0.48363966  0.18415704  0.33121083    -0.53060
O430        O  0.43144327  0.11481117  0.33607475    -0.97740
O431        O  0.40572679  0.03759822  0.25980078    -0.54960
O432        O  0.44187395  0.06465815  0.35647285    -0.74320
C433        C  0.45959961  0.06089649  0.38638139     0.98030
O434        O  0.55579407  0.11037169  0.39184776    -0.63140
O435        O  0.51044737  0.03888997  0.13856916    -0.57940
O436        O  0.56874445  0.11305412  0.27325502    -0.94620
O437        O  0.55104372  0.08287095  0.19998591    -0.93050
O438        O  0.59174757  0.14964172  0.10352146    -0.93410
O439        O  0.61916118  0.17467760  0.20817173    -0.92190
C440        C  0.55890008  0.08678010  0.25126913     1.16870
H441        H  0.53378840  0.12412131  0.08642607     0.32810
H442        H  0.57662715  0.18520598  0.28607087     0.43670
H443        H  0.47524855  0.05812395  0.28457336     0.37190
H444        H  0.45862300  0.14571953  0.21848376     0.33670
H445        H  0.63116567  0.22719828  0.15817800     0.25460
H446        H  0.49595245  0.20633931  0.34290031     0.31400
H447        H  0.41609340  0.09726023  0.36074573     0.37310
H448        H  0.61492410  0.16459319  0.10364238     0.31770
H449        H  0.49016353  0.02226587  0.12188336     0.30640
H450        H  0.44027480  0.02268208  0.15954973     0.32320
H451        H  0.39116974  0.03312609  0.29129717     0.31290
H452        H  0.61774367  0.17552708  0.24927878     0.35290
H453        H  0.57802562  0.12874443  0.39090459     0.28020
H454        H  0.45711158  0.14798515  0.04244443     0.32260
H455        H  0.38696383  0.07710050  0.26541866     0.35110
H456        H  0.52502060  0.04899649  0.10626827     0.27720
H457        H  0.54717924  0.11251833  0.42726825     0.40590
H458        H  0.57771166  0.24039651  0.25671349     0.30640
H459        H  0.60874654  0.23474896  0.18530920     0.38260
H460        H  0.41446251  0.02564492  0.26877429     0.30110
H461        H  0.46758781  0.18185178  0.30588273     0.30170
H462        H  0.43421264  0.13382830  0.09438838     0.30440
Zr463      Zr  0.36755123  0.89213014  0.81755253     2.17510
O464        O  0.32293297  0.88438021  0.86913493    -0.51920
O465        O  0.38957443  0.87682439  0.89007050    -0.75120
O466        O  0.32915053  0.83546887  0.82553962    -0.81910
O467        O  0.43028734  0.98022658  0.84176496    -0.83650
O468        O  0.31017263  0.82152436  0.73942523    -0.79280
O469        O  0.38799417  0.93762119  0.88454193    -0.90910
O470        O  0.40183870  0.85020389  0.83668868    -0.76870
O471        O  0.37792206  0.85868211  0.76822899    -0.86360
O472        O  0.42322727  0.92120809  0.80887009    -0.86050
O473        O  0.34316798  0.87867807  0.72556192    -0.72810
O474        O  0.38109798  0.93535959  0.75808875    -0.84950
Zr475      Zr  0.42359702  0.91528400  0.61807805     2.26420
Zr476      Zr  0.35401257  0.84427483  0.67748141     2.06270
Zr477      Zr  0.43717904  0.96447605  0.75130573     2.10050
Zr478      Zr  0.43312072  0.88664856  0.76380612     1.78760
O479        O  0.44184916  0.01346338  0.75189645    -0.93750
O480        O  0.43685084  0.84277517  0.74891188    -0.41560
O481        O  0.44862481  0.93026698  0.70764755    -0.78190
O482        O  0.40939669  0.87178380  0.67440873    -0.96880
O483        O  0.36844920  0.88751377  0.62016593    -0.90180
O484        O  0.41295596  0.94985698  0.66129645    -0.93020
C485        C  0.39993011  0.85976650  0.88429411     1.00730
C486        C  0.41157231  0.96712967  0.88359947     1.13660
C487        C  0.31264742  0.81455706  0.78827263     1.04440
O488        O  0.34582885  0.79462312  0.69891155    -0.95180
O489        O  0.37168105  0.82651680  0.59811906    -0.90920
O490        O  0.41470789  0.87169849  0.56406946    -0.84070
C491        C  0.39552271  0.84190241  0.56421918     1.11080
O492        O  0.30901363  0.91220654  0.70029012    -0.97150
Zr493      Zr  0.35806486  0.92153722  0.66578215     1.88940
O494        O  0.41601316  0.94363585  0.54916850    -0.73800
O495        O  0.31198409  0.82338110  0.60957456    -0.53060
O496        O  0.31462095  0.88666408  0.60401959    -0.97740
O497        O  0.36124045  0.96945086  0.67866405    -0.54960
O498        O  0.37914304  0.95097287  0.57719269    -0.74320
C499        C  0.40095560  0.95590522  0.54297889     0.98030
O500        O  0.46363873  0.92854275  0.54737833    -0.63140
O501        O  0.48945020  0.98680838  0.78771755    -0.57940
O502        O  0.46809576  0.95457399  0.66628649    -0.94620
O503        O  0.47427950  0.99848425  0.68083206    -0.93050
O504        O  0.47221264  0.91373293  0.83677119    -0.93410
O505        O  0.48237125  0.89880119  0.72423938    -0.92190
C506        C  0.47884996  0.98181611  0.64980616     1.16870
H507        H  0.43322874  0.92827642  0.84469581     0.32810
H508        H  0.41612021  0.85933516  0.66005787     0.43670
H509        H  0.42153908  0.96916915  0.64156147     0.37190
H510        H  0.32106829  0.86944713  0.73132847     0.33670
H511        H  0.44660936  0.84160432  0.78298413     0.25460
H512        H  0.30860216  0.80389565  0.59524950     0.31400
H513        H  0.31592626  0.90044355  0.57439348     0.37310
H514        H  0.48710360  0.90794668  0.83112071     0.31770
H515        H  0.49361580  0.00439907  0.81116307     0.30640
H516        H  0.46364016  0.02935927  0.76399037     0.32320
H517        H  0.35338242  0.97224421  0.64352158     0.31290
H518        H  0.48164759  0.90297126  0.68429275     0.35290
H519        H  0.47183674  0.91607867  0.55628503     0.28020
H520        H  0.31984623  0.87100706  0.90115406     0.32260
H521        H  0.30128594  0.91858050  0.66966958     0.35110
H522        H  0.48691747  0.97122129  0.81449422     0.27720
H523        H  0.45218899  0.91973554  0.51208963     0.40590
H524        H  0.35717345  0.79840791  0.73413996     0.30640
H525        H  0.41488700  0.82396193  0.75058429     0.38260
H526        H  0.38405083  0.98630972  0.67805756     0.30110
H527        H  0.29271558  0.81657944  0.63127691     0.30170
H528        H  0.30461794  0.87063526  0.84501834     0.30440
Zr529      Zr  0.35715821  0.46733592  0.48757069     2.17510
O530        O  0.31504940  0.43290970  0.42297141    -0.51920
O531        O  0.38715379  0.50943239  0.41669803    -0.75120
O532        O  0.31531570  0.47561704  0.48791212    -0.81910
O533        O  0.39803904  0.42565644  0.46570427    -0.83650
O534        O  0.31776460  0.49990462  0.56928887    -0.79280
O535        O  0.36383248  0.43296882  0.42473214    -0.90910
O536        O  0.41143380  0.55167069  0.47096083    -0.76870
O537        O  0.37808236  0.51521222  0.53807238    -0.86360
O538        O  0.41192614  0.49034851  0.49486609    -0.86050
O539        O  0.33201575  0.45539056  0.57939847    -0.72810
O540        O  0.36063519  0.43079456  0.54119721    -0.84950
Zr541      Zr  0.41048545  0.48842335  0.68971162     2.26420
Zr542      Zr  0.35564055  0.50401755  0.63099040     2.06270
Zr543      Zr  0.41603889  0.45495739  0.55027440     2.10050
Zr544      Zr  0.43245155  0.53811647  0.54359760     1.78760
O545        O  0.41188316  0.40775046  0.57574537    -0.93750
O546        O  0.44347828  0.58896331  0.56705987    -0.41560
O547        O  0.43561073  0.50263528  0.59906555    -0.78190
O548        O  0.41022272  0.52629968  0.63475496    -0.96880
O549        O  0.35597937  0.46570246  0.68309580    -0.90180
O550        O  0.38958318  0.44071506  0.63877937    -0.93020
C551        C  0.40520185  0.53937509  0.42290303     1.00730
C552        C  0.38005846  0.42127493  0.42566436     1.13660
C553        C  0.30614532  0.48822504  0.52156402     1.04440
O554        O  0.35374565  0.54937252  0.63156495    -0.95180
O555        O  0.38340341  0.54118100  0.71040933    -0.90920
O556        O  0.41093679  0.52552140  0.75220700    -0.84070
C557        C  0.40227849  0.54388145  0.74840455     1.11080
O558        O  0.28270720  0.38205497  0.59212612    -0.97150
Zr559      Zr  0.33483421  0.41817549  0.63140437     1.88940
O560        O  0.37304793  0.44726762  0.75520529    -0.73800
O561        O  0.31040583  0.47767934  0.69421752    -0.53060
O562        O  0.29466179  0.40891572  0.69846620    -0.97740
O563        O  0.32316130  0.36719184  0.60755681    -0.54960
O564        O  0.34750130  0.40080302  0.71409247    -0.74320
C565        C  0.36392335  0.41872101  0.75446411     0.98030
O566        O  0.45711914  0.52266023  0.74751247    -0.63140
O567        O  0.46080868  0.47040822  0.48937323    -0.57940
O568        O  0.44230421  0.46876344  0.68229896    -0.94620
O569        O  0.46529095  0.48054831  0.59939779    -0.93050
O570        O  0.47201068  0.54706229  0.47519829    -0.93410
O571        O  0.48510015  0.58057691  0.57053281    -0.92190
C572        C  0.46690124  0.48394467  0.65225380     1.16870
H573        H  0.42155158  0.49341301  0.45853210     0.32810
H574        H  0.42247026  0.54648910  0.65201186     0.43670
H575        H  0.39266354  0.42611501  0.65607667     0.37190
H576        H  0.30984061  0.44589483  0.57529961     0.33430
H577        H  0.45129266  0.60127652  0.53207344     0.25460
H578        H  0.30669589  0.49376498  0.70345607     0.31400
H579        H  0.28933983  0.39036519  0.72000428     0.37310
H580        H  0.48203689  0.56868656  0.46165267     0.31770
H581        H  0.45906099  0.45090072  0.48129623     0.30640
H582        H  0.42361884  0.40517017  0.54605166     0.32320
H583        H  0.31220846  0.35396592  0.64083007     0.31290
H584        H  0.48281347  0.58195244  0.61123047     0.35290
H585        H  0.46671007  0.54424943  0.73403913     0.28020
H586        H  0.31278104  0.44675156  0.39888388     0.32260
H587        H  0.27059057  0.36524536  0.62016828     0.35110
H588        H  0.45652372  0.47632846  0.45340606     0.27720
H589        H  0.45116290  0.52269492  0.78689305     0.40590
H590        H  0.36581797  0.56139309  0.59787048     0.30640
H591        H  0.42256194  0.58477405  0.57362136     0.38260
H592        H  0.34388768  0.37048406  0.60696749     0.30110
H593        H  0.29250382  0.46255883  0.67037615     0.30170
H594        H  0.29557011  0.42119169  0.44597862     0.30440
Zr595      Zr  0.46631245  0.35939109  0.17498288     2.17510
O596        O  0.43133053  0.31588024  0.23787640    -0.51920
O597        O  0.50639351  0.39013622  0.24848957    -0.75120
O598        O  0.47475759  0.31758581  0.17214545    -0.81910
O599        O  0.42649995  0.40129881  0.20220767    -0.83650
O600        O  0.49460333  0.31737217  0.08651746    -0.79280
O601        O  0.43091196  0.36437704  0.23928541    -0.90910
O602        O  0.55246456  0.41946059  0.20173762    -0.76870
O603        O  0.51438365  0.37953793  0.12316600    -0.86360
O604        O  0.49100243  0.41411490  0.16805539    -0.86050
O605        O  0.45372681  0.33602899  0.08219367    -0.72810
O606        O  0.43027678  0.36481009  0.12355552    -0.84950
Zr607      Zr  0.48909781  0.41625628  0.97745799     2.26420
Zr608      Zr  0.50257429  0.35855045  0.02945095     2.06270
Zr609      Zr  0.45588631  0.42029105  0.11707860     2.10050
Zr610      Zr  0.53915477  0.43409980  0.11847615     1.78760
O611        O  0.40935310  0.41798011  0.09250160    -0.93750
O612        O  0.58736153  0.43843806  0.09630381    -0.41560
O613        O  0.50388455  0.43972020  0.06797264    -0.78190
O614        O  0.52719942  0.41346392  0.02639250    -0.96880
O615        O  0.46506087  0.36182408  0.98066694    -0.90180
O616        O  0.44125207  0.39569876  0.02838843    -0.93020
C617        C  0.53659641  0.41037371  0.24698807     1.00730
C618        C  0.42045257  0.38168232  0.24036757     1.13660
C619        C  0.48453592  0.30667196  0.13564743     1.04440
O620        O  0.54934947  0.35860777  0.03099165    -0.95180
O621        O  0.53737084  0.38575731  0.94602326    -0.90920
O622        O  0.50796985  0.39831492  0.90513099    -0.84070
C623        C  0.53277586  0.39889417  0.90581850     1.11080
O624        O  0.37980226  0.28903559  0.07053714    -0.97150
Zr625      Zr  0.41741281  0.34118275  0.03194994     1.88940
O626        O  0.44801325  0.39637745  0.90900378    -0.73800
O627        O  0.47756479  0.31464483  0.96497588    -0.53060
O628        O  0.40782455  0.30214865  0.96325755    -0.97740
O629        O  0.36611207  0.33007076  0.05459573    -0.54960
O630        O  0.40215594  0.35669562  0.94889130    -0.74320
C631        C  0.41779010  0.37772994  0.91099040     0.98030
O632        O  0.53193274  0.46470419  0.93367263    -0.63140
O633        O  0.47065937  0.46351582  0.17988138    -0.57940
O634        O  0.47331064  0.45107862  0.98465774    -0.94620
O635        O  0.48443455  0.47050530  0.07011218    -0.93050
O636        O  0.55236860  0.47780544  0.17829739    -0.93410
O637        O  0.58251770  0.48468352  0.08344310    -0.92190
C638        C  0.48855600  0.47417130  0.01734103     1.16870
H639        H  0.49429187  0.42377130  0.20398625     0.32810
H640        H  0.54706375  0.42513547  0.00658461     0.43670
H641        H  0.42755121  0.40023919  0.01180748     0.37190
H642        H  0.44339230  0.31378803  0.08583642     0.33670
H643        H  0.60174558  0.45068673  0.12731815     0.25460
H644        H  0.49260643  0.30892506  0.96118986     0.31400
H645        H  0.38973007  0.29793819  0.94158085     0.37310
H646        H  0.56915876  0.48101574  0.20271994     0.31770
H647        H  0.45084564  0.46118266  0.18941050     0.30640
H648        H  0.40451929  0.42580561  0.12587029     0.32320
H649        H  0.35325645  0.31953625  0.02111288     0.31290
H650        H  0.58252434  0.48143829  0.04271244     0.35290
H651        H  0.52338642  0.46776093  0.89986800     0.28020
H652        H  0.44517899  0.31367942  0.26209139     0.32260
H653        H  0.36358493  0.27734454  0.04171219     0.35110
H654        H  0.47702987  0.45892850  0.21498709     0.27720
H655        H  0.54764366  0.46109573  0.92050023     0.40590
H656        H  0.55597006  0.36245655  0.07041529     0.30640
H657        H  0.58180667  0.41708440  0.10167377     0.38260
H658        H  0.36970124  0.35080584  0.05485371     0.30110
H659        H  0.45961703  0.29718264  0.98640831     0.30170
H660        H  0.42033623  0.29690597  0.21425995     0.30440
Zr661      Zr  0.13560101  0.49023301  0.52717300     2.17510
O662        O  0.12601625  0.44351281  0.57062679    -0.51920
O663        O  0.16041509  0.52554535  0.60627477    -0.75120
O664        O  0.18268032  0.49022408  0.52143387    -0.81910
O665        O  0.06059119  0.48260869  0.57631466    -0.83650
O666        O  0.20760030  0.51086640  0.43749558    -0.79280
O667        O  0.08942455  0.46400544  0.59566376    -0.90910
O668        O  0.19610347  0.56678744  0.55634186    -0.76870
O669        O  0.17843608  0.53557549  0.47759792    -0.86360
O670        O  0.12544197  0.52910142  0.53145796    -0.86050
O671        O  0.13784204  0.47739318  0.43009739    -0.72810
O672        O  0.08706275  0.46758063  0.47923362    -0.84950
Zr673      Zr  0.11971597  0.53930417  0.34273780     2.26420
Zr674      Zr  0.17929686  0.52381966  0.38083565     2.06270
Zr675      Zr  0.07689460  0.50640273  0.48534526     2.10050
Zr676      Zr  0.16941934  0.57460074  0.48455767     1.78760
O677        O  0.02547592  0.46025606  0.45991292    -0.93750
O678        O  0.22520207  0.61600095  0.47212068    -0.41560
O679        O  0.12115530  0.54874551  0.43907327    -0.78190
O680        O  0.17004977  0.56317177  0.38725567    -0.96880
O681        O  0.13087315  0.50144360  0.33360399    -0.90180
O682        O  0.07671470  0.49342224  0.38920035    -0.93020
C683        C  0.18200460  0.55487804  0.60243078     1.00730
C684        C  0.06593924  0.46601240  0.60570221     1.13660
C685        C  0.20510563  0.49925005  0.48561557     1.04440
O686        O  0.23547396  0.56460031  0.37342259    -0.95180
O687        O  0.19723535  0.55331002  0.29226128    -0.90920
O688        O  0.16207005  0.56470502  0.27570731    -0.84070
C689        C  0.18686207  0.56621906  0.26364465     1.11080
O690        O  0.07857945  0.40683574  0.41547975    -0.97150
Zr691      Zr  0.08951070  0.45619409  0.38249323     1.88940
O692        O  0.07821776  0.50164040  0.27834466    -0.73800
O693        O  0.18283941  0.48815686  0.32114290    -0.53060
O694        O  0.11087419  0.43805565  0.31456593    -0.97740
O695        O  0.03355932  0.41424480  0.39150421    -0.54960
O696        O  0.06358062  0.45259796  0.29752751    -0.74320
C697        C  0.06150023  0.47191510  0.26931274     0.98030
O698        O  0.10939320  0.56805995  0.27810379    -0.63140
O699        O  0.04261246  0.51788597  0.53092837    -0.57940
O700        O  0.11189088  0.57627003  0.38792076    -0.94620
O701        O  0.08610525  0.55703395  0.46746916    -0.93050
O702        O  0.15450892  0.59872331  0.55237893    -0.93410
O703        O  0.18008652  0.62415479  0.45382527    -0.92190
C704        C  0.08743970  0.56648430  0.41786520     1.16870
H705        H  0.12195595  0.53353504  0.56836934     0.32810
H706        H  0.18652384  0.58234555  0.36932022     0.43670
H707        H  0.05664077  0.48560313  0.37294453     0.37190
H708        H  0.14248750  0.46200477  0.42916368     0.33670
H709        H  0.23104780  0.62871846  0.50648519     0.25460
H710        H  0.20544904  0.49982975  0.31119551     0.31400
H711        H  0.09324043  0.42407195  0.28931641     0.37310
H712        H  0.17472285  0.61733112  0.56566660     0.31770
H713        H  0.02307116  0.49732023  0.54051844     0.30640
H714        H  0.01911683  0.44553991  0.49137729     0.32320
H715        H  0.02906289  0.39975683  0.36034458     0.31290
H716        H  0.17665483  0.62176711  0.41307950     0.35290
H717        H  0.12851393  0.58980960  0.27875682     0.28020
H718        H  0.14264163  0.45128129  0.59884926     0.32260
H719        H  0.07114016  0.39281686  0.38267669     0.35110
H720        H  0.05271589  0.52710161  0.56716196     0.27720
H721        H  0.10975086  0.56030655  0.24051012     0.40590
H722        H  0.23767458  0.58419487  0.38287334     0.30640
H723        H  0.23587948  0.60541959  0.47523406     0.38260
H724        H  0.02254327  0.42382700  0.38133261     0.30110
H725        H  0.17891503  0.47133436  0.34635274     0.30170
H726        H  0.13127193  0.43367488  0.54148199     0.30440
Zr727      Zr  0.89239736  0.38103318  0.84685838     2.17510
O728        O  0.88316175  0.33628811  0.79523570    -0.51920
O729        O  0.87985740  0.40320503  0.77155301    -0.75120
O730        O  0.83515491  0.34203508  0.84290038    -0.81910
O731        O  0.98141417  0.44123845  0.82464199    -0.83650
O732        O  0.81796428  0.32281171  0.92971939    -0.79280
O733        O  0.93945331  0.39877773  0.78301151    -0.90910
O734        O  0.85528742  0.42136981  0.81634534    -0.76870
O735        O  0.85795873  0.39101276  0.89420061    -0.86360
O736        O  0.92136062  0.43635827  0.85449392    -0.86050
O737        O  0.87771001  0.35593676  0.93795643    -0.72810
O738        O  0.93611444  0.39533438  0.90467218    -0.84950
Zr739      Zr  0.91440846  0.43500796  0.04556316     2.26420
Zr740      Zr  0.84381285  0.36750165  0.98587766     2.06270
Zr741      Zr  0.96471154  0.45109391  0.91194292     2.10050
Zr742      Zr  0.88631825  0.44591868  0.89840607     1.78760
O743        O  0.01617805  0.46037698  0.91428520    -0.93750
O744        O  0.83944173  0.44500330  0.91356578    -0.41560
O745        O  0.92967430  0.46126301  0.95600939    -0.78190
O746        O  0.87127500  0.42258994  0.98899568    -0.96880
O747        O  0.88660179  0.38023161  0.04239714    -0.90180
O748        O  0.94957522  0.42537209  0.00063806    -0.93020
C749        C  0.86518303  0.41622948  0.77170054     1.00730
C750        C  0.96940984  0.42158622  0.78434310     1.13660
C751        C  0.81340844  0.32343912  0.87844130     1.04440
O752        O  0.79097905  0.35244627  0.96654832    -0.95180
O753        O  0.82489696  0.38504973  0.06246146    -0.90920
O754        O  0.87016371  0.42583062  0.09954920    -0.84070
C755        C  0.84015238  0.40776647  0.09746333     1.11080
O756        O  0.90972217  0.32153834  0.95834777    -0.97150
Zr757      Zr  0.92108917  0.37056146  0.99537787     1.88940
O758        O  0.94395820  0.42729919  0.11214166    -0.73800
O759        O  0.82287687  0.32614691  0.05537458    -0.53060
O760        O  0.88821831  0.32774295  0.06048410    -0.97740
O761        O  0.96833532  0.37267414  0.97637990    -0.54960
O762        O  0.95103674  0.39077749  0.08177688    -0.74320
C763        C  0.95646956  0.41227101  0.11621009     0.98030
O764        O  0.92842329  0.46929818  0.12626626    -0.63140
O765        O  0.98640780  0.50125856  0.86684081    -0.57940
O766        O  0.95211477  0.48355075  0.00579365    -0.94620
O767        O  0.99498396  0.48714578  0.98656080    -0.93050
O768        O  0.91478921  0.48729414  0.82893835    -0.93410
O769        O  0.89853998  0.49568280  0.93226016    -0.92190
C770        C  0.97942124  0.49278164  0.01941419     1.16870
H771        H  0.92886765  0.44661627  0.81878471     0.32810
H772        H  0.85932236  0.42995547  0.00353997     0.43670
H773        H  0.96913645  0.43403862  0.01951687     0.37190
H774        H  0.86747871  0.33382867  0.93224781     0.33670
H775        H  0.83765388  0.45425484  0.87926154     0.25460
H776        H  0.80029353  0.31759469  0.05864644     0.31400
H777        H  0.90322290  0.32765551  0.08519375     0.37310
H778        H  0.89824556  0.48693693  0.80837119     0.31770
H779        H  0.98179320  0.49638372  0.82674697     0.30640
H780        H  0.03090470  0.48193699  0.89988330     0.32320
H781        H  0.96955868  0.36116629  0.00757495     0.31290
H782        H  0.90098445  0.49509651  0.97300529     0.35290
H783        H  0.91663368  0.47874467  0.12305893     0.28020
H784        H  0.86944180  0.33343803  0.76413305     0.32260
H785        H  0.91591621  0.31294153  0.98765620     0.35110
H786        H  0.97266485  0.50759718  0.87939069     0.27720
H787        H  0.91925710  0.45549557  0.15939424     0.40590
H788        H  0.79322689  0.36342171  0.93143474     0.30640
H789        H  0.82175162  0.42260847  0.91167076     0.38260
H790        H  0.98589565  0.39480998  0.98257329     0.30110
H791        H  0.82320109  0.30938625  0.03680538     0.30170
H792        H  0.86944089  0.31812861  0.82004103     0.30440
C793        C  0.02798544  0.43058503  0.19906104    -0.20890
C794        C  0.03608400  0.45790287  0.22718929    -0.07460
C795        C  0.01676766  0.46842345  0.22080272     0.13410
C796        C  0.98898215  0.45044737  0.19051195    -0.20940
C797        C  0.98157020  0.42409915  0.15929488    -0.07460
C798        C  0.00184209  0.41426145  0.16359286     0.13400
C799        C  0.99694020  0.38723534  0.13058068    -0.24290
H800        H  0.04274348  0.42237263  0.20388172     0.14690
H801        H  0.97436813  0.45891386  0.18765685     0.14720
C802        C  0.02571877  0.49917191  0.24409331    -0.24240
H803        H  0.01425630  0.38220131  0.14141082     0.04930
H804        H  0.00009222  0.39298046  0.08551725     0.08150
H805        H  0.97308591  0.36577758  0.13913908     0.08150
H806        H  0.04787330  0.51847437  0.22399825     0.08140
H807        H  0.02943554  0.49947971  0.28916869     0.08140
H808        H  0.00747250  0.50341968  0.23689310     0.04910
C809        C  0.02592382  0.44862401  0.75004149    -0.20890
C810        C  0.99332301  0.42753159  0.73826128    -0.07460
C811        C  0.98583760  0.41564688  0.68290962     0.13410
C812        C  0.01019885  0.42671342  0.64164444    -0.20940
C813        C  0.04249280  0.44886275  0.65348640    -0.07460
C814        C  0.05005530  0.45943764  0.70902719     0.13400
C815        C  0.08368362  0.48380994  0.72450927    -0.24290
H816        H  0.03292148  0.45791188  0.79181263     0.14690
H817        H  0.00383305  0.41882589  0.59895828     0.14720
C818        C  0.95229233  0.39203244  0.66630400    -0.24240
H819        H  0.08597782  0.48986836  0.76948247     0.04930
H820        H  0.09290916  0.50546148  0.70017615     0.08150
H821        H  0.09820793  0.47498916  0.71527130     0.08150
H822        H  0.93860040  0.40191094  0.67272785     0.08140
H823        H  0.94184565  0.37053650  0.69185444     0.08140
H824        H  0.95048169  0.38535363  0.62172651     0.04910
C825        C  0.28635466  0.51953696  0.50336318    -0.20890
C826        C  0.28005583  0.48975962  0.50635725    -0.07460
C827        C  0.24868163  0.46293827  0.50696514     0.13410
C828        C  0.22415246  0.46661390  0.50293463    -0.20940
C829        C  0.23061028  0.49646730  0.49915448    -0.07460
C830        C  0.26200678  0.52327585  0.49979023     0.13400
C831        C  0.26989062  0.55587168  0.49831629    -0.24290
H832        H  0.31050299  0.53999443  0.50529955     0.14690
H833        H  0.19996816  0.44621557  0.50171892     0.14720
C834        C  0.24110908  0.43069071  0.51353800    -0.24240
H835        H  0.29555041  0.57400657  0.50228960     0.04930
H836        H  0.25769398  0.55893118  0.53330785     0.08150
H837        H  0.26250683  0.55997108  0.45832310     0.08150
H838        H  0.25070309  0.42914709  0.55340577     0.08140
H839        H  0.25166482  0.42572908  0.47832920     0.08140
H840        H  0.21534093  0.41241133  0.51393808     0.04910
C841        C  0.35889179  0.37482003  0.81008748    -0.20890
C842        C  0.37468879  0.40711426  0.79912259    -0.07460
C843        C  0.40294133  0.42822960  0.82762787     0.13410
C844        C  0.41600151  0.41704105  0.86103986    -0.20940
C845        C  0.40110197  0.38520668  0.87144092    -0.07460
C846        C  0.37121841  0.36370729  0.84769960     0.13400
C847        C  0.35262485  0.32939163  0.86109272    -0.24290
H848        H  0.33685151  0.35829760  0.78952068     0.14690
H849        H  0.43789983  0.43371921  0.88129871     0.14720
C850        C  0.42023276  0.46293469  0.82256385    -0.24240
H851        H  0.33026829  0.31584818  0.83771195     0.04930
H852        H  0.34662324  0.32567123  0.90626429     0.08150
H853        H  0.36661252  0.32019129  0.84998495     0.08150
H854        H  0.40548883  0.47043901  0.83868625     0.08140
H855        H  0.42657114  0.46930269  0.77849874     0.08140
H856        H  0.44218357  0.47591250  0.84595413     0.04910
C857        C  0.38401692  0.39441451  0.27851376    -0.20890
C858        C  0.40128352  0.38166117  0.28831246    -0.07460
C859        C  0.40405248  0.37525180  0.34409879     0.13410
C860        C  0.39333055  0.38531708  0.38767834    -0.20940
C861        C  0.38066988  0.40265860  0.37779642    -0.07460
C862        C  0.37422896  0.40541466  0.32200832     0.13400
C863        C  0.35889629  0.42155085  0.30731488    -0.24290
H864        H  0.38021885  0.39812341  0.23591097     0.14690
H865        H  0.39703821  0.38146784  0.43023987     0.14720
C866        C  0.41982269  0.35952468  0.35847926    -0.24240
H867        H  0.35543225  0.42131517  0.26168270     0.04930
H868        H  0.37387998  0.44636263  0.32077384     0.08150
H869        H  0.33544140  0.40944145  0.32799073     0.08150
H870        H  0.44465960  0.37396210  0.34381447     0.08140
H871        H  0.40718037  0.33613125  0.33854921     0.08140
H872        H  0.41978156  0.35620127  0.40417153     0.04910
C873        C  0.51471202  0.28664410  0.16102695    -0.20890
C874        C  0.48528748  0.28000035  0.14917717    -0.07460
C875        C  0.46016301  0.24919268  0.13510421     0.13410
C876        C  0.46474254  0.22526399  0.13604195    -0.20940
C877        C  0.49420325  0.23194247  0.14873300    -0.07460
C878        C  0.51974065  0.26323203  0.15972819     0.13400
C879        C  0.55288422  0.27299161  0.16867463    -0.24290
H880        H  0.53441102  0.31067076  0.16832804     0.14690
H881        H  0.44517720  0.20127590  0.12830084     0.14720
C882        C  0.42879187  0.24177869  0.11838766    -0.24240
H883        H  0.56899844  0.29158022  0.13824784     0.04930
H884        H  0.55550431  0.25361497  0.16244589     0.08150
H885        H  0.56039050  0.28244687  0.21147437     0.08150
H886        H  0.43166918  0.25527790  0.08046883     0.08140
H887        H  0.41895679  0.24811035  0.15278547     0.08140
H888        H  0.41167759  0.21653141  0.10903812     0.04910
C889        C  0.45343146  0.01479868  0.42883620    -0.20890
C890        C  0.44362742  0.03453918  0.42763728    -0.07460
C891        C  0.41730158  0.02660554  0.46120445     0.13410
C892        C  0.40264983  0.99996488  0.49632239    -0.20940
C893        C  0.41273286  0.98011789  0.49748207    -0.07460
C894        C  0.43786904  0.98730995  0.46073228     0.13400
C895        C  0.44979598  0.96715259  0.45580546    -0.24290
H896        H  0.47385227  0.02119506  0.40467176     0.14690
H897        H  0.38371019  0.99514835  0.52401507     0.14720
C898        C  0.40541569  0.04684803  0.46224529    -0.24240
H899        H  0.46599933  0.97378768  0.42025779     0.04930
H900        H  0.42996600  0.94235250  0.44908286     0.08150
H901        H  0.46331165  0.97009541  0.49336737     0.08150
H902        H  0.39589899  0.04644214  0.42094605     0.08140
H903        H  0.42485802  0.07123112  0.47302014     0.08140
H904        H  0.38620834  0.03851852  0.49356353     0.04910
C905        C  0.40607765  0.00313932  0.94858777    -0.20890
C906        C  0.42110903  0.98850121  0.93388069    -0.07460
C907        C  0.45035924  0.00025015  0.95897939     0.13410
C908        C  0.46427888  0.02633701  0.99482805    -0.20940
C909        C  0.45000434  0.04174833  0.00953863    -0.07460
C910        C  0.41974025  0.02896498  0.98678106     0.13400
C911        C  0.40160485  0.04215082  0.00284772    -0.24290
H912        H  0.38394154  0.99490803  0.92909768     0.14690
H913        H  0.48705702  0.03470727  0.01154847     0.14720
C914        C  0.46737676  0.98516649  0.94788255    -0.24240
H915        H  0.37833303  0.02934049  0.98241491     0.04930
H916        H  0.41498413  0.06706325  0.99008660     0.08150
H917        H  0.39757494  0.04027622  0.04868595     0.08150
H918        H  0.47400916  0.98730482  0.90327488     0.08140
H919        H  0.45189258  0.96003248  0.95941653     0.08140
H920        H  0.48928042  0.99620180  0.97235332     0.04910
C921        C  0.39389635  0.82010164  0.47056765    -0.20890
C922        C  0.40485004  0.82612261  0.52545990    -0.07460
C923        C  0.43258547  0.82800183  0.53647178     0.13410
C924        C  0.45105410  0.82884648  0.49194883    -0.20940
C925        C  0.44242585  0.82751346  0.43636090    -0.07460
C926        C  0.41200330  0.82004800  0.42614244     0.13400
C927        C  0.39920944  0.81465259  0.36815844    -0.24290
H928        H  0.37262307  0.81837251  0.46144449     0.14690
H929        H  0.47414969  0.83439922  0.50036946     0.14720
C930        C  0.44464871  0.83259629  0.59496584    -0.24240
H931        H  0.37560231  0.79206676  0.36690409     0.04930
H932        H  0.41420974  0.81320854  0.33695793     0.08150
H933        H  0.39703576  0.83377097  0.35634673     0.08150
H934        H  0.42596306  0.81390016  0.62253095     0.08140
H935        H  0.45199359  0.85579160  0.61079222     0.08140
H936        H  0.46539405  0.83167498  0.59672070     0.04910
C937        C  0.44214686  0.85618474  0.91951795    -0.20890
C938        C  0.41447160  0.85429134  0.93131200    -0.07460
C939        C  0.40365135  0.84970343  0.98699501     0.13410
C940        C  0.42255733  0.85077714  0.02940739    -0.20940
C941        C  0.45227569  0.85677538  0.01794594    -0.07460
C942        C  0.46147760  0.85811793  0.96189675     0.13400
C943        C  0.49142536  0.86147121  0.94623898    -0.24290
H944        H  0.44978107  0.85795272  0.87671531     0.14690
H945        H  0.41431455  0.84796205  0.07212170     0.14720
C946        C  0.37222178  0.84295139  0.00317104    -0.24240
H947        H  0.49363895  0.85978518  0.90044211     0.04930
H948        H  0.49171172  0.84260030  0.96628332     0.08150
H949        H  0.51214919  0.88460472  0.95957537     0.08150
H950        H  0.35842178  0.82078739  0.02731136     0.08140
H951        H  0.35792569  0.84000806  0.96674869     0.08140
H952        H  0.37577825  0.86221094  0.02961668     0.04910
C953        C  0.50938417  0.03844301  0.27576065    -0.20890
C954        C  0.54115224  0.06035469  0.28768601    -0.07460
C955        C  0.55413820  0.05732875  0.33608442     0.13410
C956        C  0.53494146  0.03062020  0.36819061    -0.20940
C957        C  0.50639711  0.00581119  0.34622865    -0.07460
C958        C  0.49077207  0.01243589  0.30908056     0.13400
C959        C  0.45688764  0.98842858  0.29482202    -0.24290
H960        H  0.49947745  0.04085456  0.23920691     0.14690
H961        H  0.54572746  0.02664027  0.40133127     0.14720
C962        C  0.58837073  0.07931177  0.35140747    -0.24240
H963        H  0.44347231  0.99878018  0.29988983     0.04930
H964        H  0.44608659  0.96773026  0.32268025     0.08150
H965        H  0.45511177  0.98054307  0.25106198     0.08150
H966        H  0.59038944  0.08842867  0.39423044     0.08140
H967        H  0.60207827  0.09939166  0.32247484     0.08140
H968        H  0.59930692  0.06633394  0.35072517     0.04910
C969        C  0.77216694  0.31319463  0.81602172    -0.20890
C970        C  0.78104863  0.30299148  0.86056653    -0.07460
C971        C  0.75834400  0.27435694  0.88786335     0.13410
C972        C  0.73016670  0.25370376  0.86121973    -0.20940
C973        C  0.72506196  0.26128421  0.80914194    -0.07460
C974        C  0.74371075  0.29267059  0.79016234     0.13400
C975        C  0.73505952  0.30447637  0.74170365    -0.24290
H976        H  0.78822192  0.33666896  0.79956453     0.14690
H977        H  0.71370927  0.23045812  0.87811461     0.14720
C978        C  0.76382281  0.26420528  0.94249041    -0.24240
H979        H  0.75011998  0.33044508  0.73985448     0.04930
H980        H  0.71030629  0.29673722  0.74651367     0.08150
H981        H  0.73841182  0.29609108  0.70152187     0.08150
H982        H  0.76752437  0.28070630  0.97598599     0.08140
H983        H  0.78450239  0.26323450  0.93872124     0.08140
H984        H  0.74333762  0.24062018  0.95547116     0.04910
C985        C  0.62514345  0.02269183  0.44876760    -0.20890
C986        C  0.59218551  0.00105898  0.44320352    -0.07460
C987        C  0.57287235  0.00890592  0.46845532     0.13410
C988        C  0.58671862  0.03875101  0.49126315    -0.20940
C989        C  0.61887943  0.05876256  0.50291018    -0.07460
C990        C  0.63857505  0.05064549  0.48036294     0.13400
C991        C  0.67370492  0.07204140  0.48656892    -0.24290
H992        H  0.64050262  0.01758358  0.42887388     0.14690
H993        H  0.57162346  0.04559736  0.50316844     0.14720
C994        C  0.53752138  0.98622737  0.47299431    -0.24240
H995        H  0.68568814  0.06349982  0.46241811     0.04930
H996        H  0.68008946  0.07342340  0.53091314     0.08150
H997        H  0.68259930  0.09575384  0.47104248     0.08150
H998        H  0.53115836  0.96558147  0.49809720     0.08140
H999        H  0.52684059  0.97850215  0.43190059     0.08140
H1000       H  0.52653775  0.99708394  0.49204611     0.04910
C1001       C  0.61728832  0.03035139  0.93577307    -0.20890
C1002       C  0.62192577  0.05959139  0.94494945    -0.07460
C1003       C  0.61399608  0.06434563  0.99885540     0.13410
C1004       C  0.60112815  0.04022780  0.04009869    -0.20940
C1005       C  0.59494818  0.01019630  0.03032482    -0.07460
C1006       C  0.60435342  0.00611843  0.97696852     0.13400
C1007       C  0.59996530  0.97589979  0.96212194    -0.24290
H1008       H  0.62270108  0.02583433  0.89463082     0.14690
H1009       H  0.59486221  0.04484909  0.08028086     0.14720
C1010       C  0.61730210  0.09425705  0.01212522    -0.24240
H1011       H  0.60843384  0.97641623  0.91908953     0.04930
H1012       H  0.57463789  0.95630403  0.96468561     0.08150
H1013       H  0.61345784  0.97158530  0.99120586     0.08150
H1014       H  0.60261910  0.09718412  0.98348415     0.08140
H1015       H  0.64227340  0.11442253  0.00712618     0.08140
H1016       H  0.60969537  0.09441196  0.05556554     0.04910
C1017       C  0.53730162  0.04524257  0.57670308    -0.20890
C1018       C  0.55557342  0.04065769  0.61146813    -0.07460
C1019       C  0.55047533  0.01129338  0.60722164     0.13410
C1020       C  0.51955243  0.98608226  0.59830507    -0.20940
C1021       C  0.49678767  0.99253939  0.59850323    -0.07460
C1022       C  0.50541448  0.02148206  0.57720483     0.13400
C1023       C  0.48242562  0.02956312  0.56919876    -0.24290
H1024       H  0.54572513  0.06819352  0.56241200     0.14690
H1025       H  0.51309183  0.96278203  0.60696563     0.14720
C1026       C  0.57502387  0.00613134  0.62295758    -0.24240
H1027       H  0.48549903  0.03938921  0.52691086     0.04930
H1028       H  0.48654227  0.04725792  0.60042644     0.08150
H1029       H  0.45804605  0.00875973  0.57494588     0.08150
H1030       H  0.58203211  0.01272066  0.66691564     0.08140
H1031       H  0.59616283  0.02036383  0.59598385     0.08140
H1032       H  0.56614900  0.98123215  0.61780884     0.04910
C1033       C  0.63117085  0.21463982  0.47042665    -0.20890
C1034       C  0.61511264  0.20362568  0.52149293    -0.07460
C1035       C  0.58700898  0.20167154  0.52965689     0.13410
C1036       C  0.57235772  0.20417407  0.48363915    -0.20940
C1037       C  0.58561439  0.20936482  0.43031603    -0.07460
C1038       C  0.61684866  0.21813084  0.42474117     0.13400
C1039       C  0.63372058  0.22807543  0.36918771    -0.24290
H1040       H  0.65343912  0.21761671  0.46477113     0.14690
H1041       H  0.54878095  0.19830882  0.48848187     0.14720
C1042       C  0.57104376  0.19553050  0.58558315    -0.24240
H1043       H  0.65826568  0.23515320  0.37255743     0.04930
H1044       H  0.63453332  0.24834907  0.35308232     0.08150
H1045       H  0.62144337  0.20855553  0.33901709     0.08150
H1046       H  0.58564786  0.19680945  0.61974752     0.08140
H1047       H  0.54806613  0.17229101  0.58565938     0.08140
H1048       H  0.56686471  0.21372184  0.59416393     0.04910
C1049       C  0.59023449  0.19321572  0.91262334    -0.20890
C1050       C  0.61797308  0.19582034  0.92540899    -0.07460
C1051       C  0.62937392  0.20338480  0.98019017     0.13410
C1052       C  0.61074437  0.20445559  0.02169710    -0.20940
C1053       C  0.58044951  0.19648297  0.01005325    -0.07460
C1054       C  0.57098809  0.19278611  0.95424178     0.13400
C1055       C  0.54057800  0.18791713  0.93806692    -0.24290
H1056       H  0.58206401  0.18893097  0.87014719     0.14690
H1057       H  0.61888834  0.20904679  0.06419976     0.14720
C1058       C  0.66072111  0.21008564  0.99517181    -0.24240
H1059       H  0.53863250  0.18850078  0.89209982     0.04930
H1060       H  0.53936633  0.20674798  0.95629066     0.08150
H1061       H  0.52014966  0.16480321  0.95269768     0.08150
H1062       H  0.67953157  0.22923221  0.96841899     0.08140
H1063       H  0.66034187  0.18884335  0.98949539     0.08140
H1064       H  0.66662919  0.21746101  0.03936706     0.04910
C1065       C  0.82776478  0.44549447  0.11600530    -0.20890
C1066       C  0.82420071  0.41798668  0.13320740    -0.07460
C1067       C  0.81784507  0.40955821  0.19002487     0.13410
C1068       C  0.81963407  0.43083796  0.22909174    -0.20940
C1069       C  0.82931556  0.46095626  0.21255987    -0.07460
C1070       C  0.83100529  0.46733532  0.15507137     0.13400
C1071       C  0.83859228  0.49821508  0.13518011    -0.24290
H1072       H  0.83240346  0.45195303  0.07227420     0.14690
H1073       H  0.81793741  0.42564644  0.27321054     0.14720
C1074       C  0.81211808  0.37945352  0.20975342    -0.24240
H1075       H  0.83868279  0.49936316  0.08894678     0.04930
H1076       H  0.86213667  0.51770398  0.14980268     0.08150
H1077       H  0.82064194  0.50147230  0.15170213     0.08150
H1078       H  0.83292100  0.37927496  0.20006212     0.08140
H1079       H  0.79128017  0.35945232  0.18842157     0.08140
H1080       H  0.80763920  0.37628752  0.25545254     0.04910
C1081       C  0.88830085  0.46518091  0.64179649    -0.20890
C1082       C  0.86314087  0.46762361  0.63636263    -0.07460
C1083       C  0.83636848  0.44964396  0.67100689     0.13410
C1084       C  0.83655426  0.43123308  0.71332217    -0.20940
C1085       C  0.86231251  0.42931914  0.71951920    -0.07460
C1086       C  0.88789605  0.44559928  0.68139561     0.13400
C1087       C  0.91541883  0.44333987  0.68253370    -0.24290
H1088       H  0.90850086  0.47853504  0.61419423     0.14690
H1089       H  0.81686734  0.41883067  0.74237427     0.14720
C1090       C  0.80831262  0.45068494  0.66435273    -0.24240
H1091       H  0.93288333  0.45732530  0.64883886     0.04930
H1092       H  0.90675084  0.41862381  0.67622274     0.08150
H1093       H  0.92777329  0.45210893  0.72275786     0.08150
H1094       H  0.79845844  0.44244905  0.62204169     0.08140
H1095       H  0.81550028  0.47503470  0.66997121     0.08140
H1096       H  0.78950853  0.43555695  0.69544433     0.04910
C1097       C  0.02544766  0.55865767  0.32926915    -0.20890
C1098       C  0.00129158  0.52717717  0.33891322    -0.07460
C1099       C  0.00569700  0.50846573  0.37276188     0.13410
C1100       C  0.03448404  0.52216798  0.39795722    -0.20940
C1101       C  0.05848180  0.55371949  0.38941416    -0.07460
C1102       C  0.05442222  0.57238103  0.35452579     0.13400
C1103       C  0.07893265  0.60725947  0.34998664    -0.24290
H1104       H  0.02084140  0.57346370  0.30766349     0.14690
H1105       H  0.03808637  0.50853703  0.42546768     0.14720
C1106       C  0.98002784  0.47410360  0.38126531    -0.24240
H1107       H  0.07056547  0.61875949  0.32480550     0.04930
H1108       H  0.10070259  0.61214000  0.33008352     0.08150
H1109       H  0.08457604  0.61793256  0.39216542     0.08150
H1110       H  0.97308786  0.46207917  0.34025853     0.08140
H1111       H  0.95911078  0.47082654  0.40185611     0.08140
H1112       H  0.98767828  0.46254409  0.40760258     0.04910
C1113       C  0.30862056  0.77498295  0.84908111    -0.20890
C1114       C  0.29958659  0.78179539  0.79966485    -0.07460
C1115       C  0.28082446  0.75706397  0.76066391     0.13410
C1116       C  0.26898016  0.72661492  0.77653821    -0.20940
C1117       C  0.26814239  0.72108011  0.83302732    -0.07460
C1118       C  0.29405205  0.74405673  0.86468160     0.13400
C1119       C  0.30350627  0.73680230  0.91780342    -0.24290
H1120       H  0.32606930  0.79339238  0.87623157     0.14690
H1121       H  0.25260972  0.70728901  0.74966429     0.14720
C1122       C  0.27059298  0.76120187  0.70504805    -0.24240
H1123       H  0.32923802  0.74794728  0.91683458     0.04930
H1124       H  0.29165047  0.71132039  0.92229483     0.08150
H1125       H  0.29770003  0.74595664  0.95413795     0.08150
H1126       H  0.29119660  0.77536702  0.67726397     0.08140
H1127       H  0.25796196  0.77233522  0.71080401     0.08140
H1128       H  0.25434307  0.73857656  0.68344331     0.04910
C1129       C  0.02008018  0.58837183  0.20251146    -0.20890
C1130       C  0.00506128  0.60349703  0.20672737    -0.07460
C1131       C  0.01983646  0.63324990  0.18128750     0.13410
C1132       C  0.04791586  0.64574851  0.14970193    -0.20940
C1133       C  0.06354076  0.63093690  0.14795315    -0.07460
C1134       C  0.05061108  0.60346396  0.18062571     0.13400
C1135       C  0.06882267  0.59055808  0.19792758    -0.24290
H1136       H  0.00900827  0.56538039  0.22057105     0.14690
H1137       H  0.05738116  0.66694007  0.12579757     0.14720
C1138       C  0.00527995  0.65103300  0.18468215    -0.24240
H1139       H  0.06925271  0.59013689  0.24368463     0.04930
H1140       H  0.09384212  0.60490851  0.18489165     0.08150
H1141       H  0.05704479  0.56609357  0.18431987     0.08150
H1142       H  0.00481074  0.65765315  0.22853141     0.08140
H1143       H  0.98093713  0.63633715  0.16858654     0.08140
H1144       H  0.01883043  0.67289215  0.15966479     0.04910
C1145       C  0.05375953  0.60307312  0.67268528    -0.20890
C1146       C  0.06100955  0.62907369  0.70420750    -0.07460
C1147       C  0.04103434  0.63913850  0.69591711     0.13410
C1148       C  0.01598098  0.62413388  0.65582216    -0.20940
C1149       C  0.00875167  0.59785318  0.62392440    -0.07460
C1150       C  0.02845607  0.58741021  0.63434325     0.13400
C1151       C  0.02232182  0.55828627  0.60772171    -0.24290
H1152       H  0.06715829  0.59361053  0.68063734     0.14690
H1153       H  0.00185487  0.63295307  0.64984681     0.14720
C1154       C  0.04589402  0.66561005  0.73048318    -0.24240
H1155       H  0.03628970  0.55094016  0.62717352     0.04930
H1156       H  0.02924369  0.56282257  0.56310080     0.08150
H1157       H  0.99716563  0.53859657  0.61291212     0.08150
H1158       H  0.07009986  0.68685512  0.72340971     0.08140
H1159       H  0.04262800  0.65926521  0.77536723     0.08140
H1160       H  0.02898544  0.67116560  0.71959067     0.04910
C1161       C  0.04500980  0.55100477  0.08297220    -0.20890
C1162       C  0.03755430  0.56835342  0.05211620    -0.07460
C1163       C  0.00804712  0.56223412  0.06369035     0.13410
C1164       C  0.98426074  0.53157287  0.07894404    -0.20940
C1165       C  0.99150635  0.50960326  0.07181584    -0.07460
C1166       C  0.02184653  0.51909602  0.08623565     0.13400
C1167       C  0.03131413  0.49693487  0.08694442    -0.24290
H1168       H  0.06906980  0.55983206  0.08910515     0.14690
H1169       H  0.96019723  0.52442810  0.07725391     0.14720
C1170       C  0.00040815  0.58490316  0.04903332    -0.24240
H1171       H  0.04559968  0.50115477  0.12417246     0.04930
H1172       H  0.04535693  0.50026788  0.04904888     0.08150
H1173       H  0.01041274  0.47244255  0.08646926     0.08150
H1174       H  0.98327276  0.57533683  0.01451403     0.08140
H1175       H  0.02186810  0.60776373  0.03583626     0.08140
H1176       H  0.98994727  0.58876391  0.08590715     0.04910
C1177       C  0.18649091  0.58368322  0.11680751    -0.20890
C1178       C  0.19956487  0.61569958  0.12122392    -0.07460
C1179       C  0.21911997  0.63254929  0.16670952     0.13410
C1180       C  0.22007393  0.61582878  0.21167747    -0.20940
C1181       C  0.20214911  0.58288258  0.21105163    -0.07460
C1182       C  0.18738878  0.56706260  0.16113934     0.13400
C1183       C  0.16881694  0.53198722  0.15621990    -0.24290
H1184       H  0.17306027  0.57092126  0.08033959     0.14690
H1185       H  0.23162016  0.62811148  0.24984967     0.14720
C1186       C  0.23691766  0.66754205  0.16952695    -0.24240
H1187       H  0.17738435  0.52582401  0.11942473     0.04930
H1188       H  0.14353113  0.52199798  0.15074757     0.08150
H1189       H  0.17117594  0.52105655  0.19340886     0.08150
H1190       H  0.22028291  0.67430308  0.16867453     0.08140
H1191       H  0.25333238  0.67824725  0.13325432     0.08140
H1192       H  0.25091681  0.67704976  0.20818894     0.04910
C1193       C  0.21069369  0.62453247  0.69764959    -0.20890
C1194       C  0.18196408  0.62076728  0.70727860    -0.07460
C1195       C  0.15450208  0.59547397  0.68286805     0.13410
C1196       C  0.15519651  0.57169994  0.65894645    -0.20940
C1197       C  0.18362145  0.57598376  0.64529838    -0.07460
C1198       C  0.21206947  0.60334847  0.66347311     0.13400
C1199       C  0.24334613  0.60925636  0.64952670    -0.24290
H1200       H  0.23181601  0.64377622  0.71725372     0.14690
H1201       H  0.13317391  0.55043530  0.64822765     0.14720
C1202       C  0.12430864  0.59314602  0.68123645    -0.24240
H1203       H  0.26300246  0.63103955  0.66936309     0.04930
H1204       H  0.24749804  0.61175616  0.60376187     0.08150
H1205       H  0.24364719  0.58943651  0.66453533     0.08150
H1206       H  0.12890796  0.61505097  0.66395341     0.08140
H1207       H  0.11373243  0.58874872  0.72300540     0.08140
H1208       H  0.10660382  0.57357031  0.65430637     0.04910
C1209       C  0.56684407  0.81124793  0.16729014    -0.20890
C1210       C  0.54101638  0.81043858  0.14760131    -0.07460
C1211       C  0.51415526  0.78148146  0.13019963     0.13410
C1212       C  0.51382941  0.75447678  0.13189600    -0.20940
C1213       C  0.53962170  0.75502212  0.15101447    -0.07460
C1214       C  0.56665515  0.78407465  0.16856935     0.13400
C1215       C  0.59544175  0.78668847  0.18778609    -0.24290
H1216       H  0.58687035  0.83307938  0.18350116     0.14690
H1217       H  0.49310254  0.73254989  0.11760069     0.14720
C1218       C  0.48527165  0.77888565  0.11118361    -0.24240
H1219       H  0.61463804  0.81112492  0.19888437     0.04930
H1220       H  0.60430909  0.77891341  0.15410079     0.08150
H1221       H  0.58950231  0.77189886  0.22530399     0.08150
H1222       H  0.49144094  0.79464824  0.07503313     0.08140
H1223       H  0.47577854  0.78561278  0.14553240     0.08140
H1224       H  0.46639259  0.75468445  0.09826259     0.04910
C1225       C  0.54583030  0.51300577  0.02246434    -0.20890
C1226       C  0.51736670  0.50236152  0.99576257    -0.07460
C1227       C  0.51851813  0.51532209  0.94354903     0.13410
C1228       C  0.54756817  0.54041703  0.92295930    -0.20940
C1229       C  0.57193720  0.55697272  0.96111552    -0.07460
C1230       C  0.57407787  0.53923057  0.00164947     0.13400
C1231       C  0.60465881  0.55182517  0.03021594    -0.24290
H1232       H  0.54597668  0.50131787  0.05930441     0.14690
H1233       H  0.54831220  0.55202026  0.88512001     0.14720
C1234       C  0.48956634  0.50380633  0.91098874    -0.24240
H1235       H  0.61171897  0.53573465  0.02354065     0.04930
H1236       H  0.60224777  0.55447129  0.07559068     0.08150
H1237       H  0.62369834  0.57499249  0.01283827     0.08150
H1238       H  0.47179258  0.50364666  0.93748576     0.08140
H1239       H  0.48045504  0.48007273  0.89626240     0.08140
H1240       H  0.49458502  0.51855442  0.87372270     0.04910
C1241       C  0.46756850  0.62146836  0.81161543    -0.20890
C1242       C  0.46095025  0.61557399  0.86890079    -0.07460
C1243       C  0.43111332  0.58837795  0.88509317     0.13410
C1244       C  0.41080152  0.56642811  0.84442451    -0.20940
C1245       C  0.41848552  0.57131253  0.78736176    -0.07460
C1246       C  0.44674410  0.59999680  0.77093311     0.13400
C1247       C  0.45655384  0.60691174  0.71056073    -0.24290
H1248       H  0.49030955  0.64190682  0.79866032     0.14690
H1249       H  0.38947122  0.54451682  0.85773346     0.14720
C1250       C  0.42056821  0.58049622  0.94509320    -0.24240
H1251       H  0.47827142  0.63087782  0.70459846     0.04930
H1252       H  0.43760222  0.60491318  0.68591252     0.08150
H1253       H  0.46152732  0.59025891  0.69476325     0.08150
H1254       H  0.43609978  0.59986896  0.97386842     0.08140
H1255       H  0.39681526  0.57545460  0.94998716     0.08140
H1256       H  0.41939704  0.55947554  0.95759493     0.04910
C1257       C  0.45179974  0.58966179  0.38522902    -0.20890
C1258       C  0.42223891  0.56134978  0.37487524    -0.07460
C1259       C  0.41111151  0.55496646  0.31982582     0.13410
C1260       C  0.43062546  0.57554568  0.27668742    -0.20940
C1261       C  0.46170832  0.60221450  0.28611209    -0.07460
C1262       C  0.47177046  0.60982392  0.34202556     0.13400
C1263       C  0.50365621  0.63849966  0.35707869    -0.24290
H1264       H  0.46023369  0.59547995  0.42757952     0.14690
H1265       H  0.42175270  0.56960640  0.23460084     0.14720
C1266       C  0.37871218  0.52671136  0.30607963    -0.24240
H1267       H  0.50677261  0.64140509  0.40294465     0.04930
H1268       H  0.50650965  0.65971067  0.34030299     0.08150
H1269       H  0.52243385  0.63661517  0.34008730     0.08150
H1270       H  0.36083573  0.52681430  0.33170232     0.08140
H1271       H  0.37706134  0.50499112  0.31426180     0.08140
H1272       H  0.37308714  0.52641837  0.26149506     0.04910
C1273       C  0.75062873  0.51903444  0.50615187    -0.20890
C1274       C  0.75429736  0.54762801  0.51024323    -0.07460
C1275       C  0.78487673  0.57532815  0.51741752     0.13410
C1276       C  0.81110608  0.57383334  0.51745553    -0.20940
C1277       C  0.80732443  0.54511696  0.51245941    -0.07460
C1278       C  0.77648133  0.51734657  0.50763949     0.13400
C1279       C  0.76994414  0.48532081  0.50399920    -0.24290
H1280       H  0.72712498  0.49756919  0.50385128     0.14690
H1281       H  0.83465211  0.59520378  0.51941619     0.14720
C1282       C  0.78974148  0.60633088  0.52601270    -0.24240
H1283       H  0.75365366  0.47043484  0.53839907     0.04930
H1284       H  0.79144322  0.48586053  0.50774205     0.08150
H1285       H  0.75866984  0.47431866  0.46362507     0.08150
H1286       H  0.77703788  0.60547254  0.56433407     0.08140
H1287       H  0.78065338  0.61166446  0.48964489     0.08140
H1288       H  0.81501548  0.62564088  0.53072997     0.04910
C1289       C  0.63127179  0.64090960  0.77123301    -0.20890
C1290       C  0.65392623  0.63694977  0.79119243    -0.07460
C1291       C  0.66618491  0.64795190  0.84476438     0.13410
C1292       C  0.65440780  0.66145385  0.87818580    -0.20940
C1293       C  0.62987600  0.66332876  0.85980638    -0.07460
C1294       C  0.61868657  0.65335494  0.80480632     0.13400
C1295       C  0.59309742  0.65510401  0.78103349    -0.24290
H1296       H  0.62216119  0.63271260  0.72969966     0.14690
H1297       H  0.66306963  0.66873538  0.92021194     0.14720
C1298       C  0.69101057  0.64469550  0.86691478    -0.24240
H1299       H  0.59032614  0.65008080  0.73571430     0.04930
H1300       H  0.59899293  0.67897117  0.78685112     0.08150
H1301       H  0.57015007  0.63757085  0.80134888     0.08150
H1302       H  0.71209533  0.65733320  0.83913986     0.08140
H1303       H  0.68185845  0.61960558  0.86850319     0.08140
H1304       H  0.69822270  0.65452526  0.90957812     0.04910
C1305       C  0.58669381  0.60224188  0.31279159    -0.20890
C1306       C  0.60628208  0.63346114  0.29447400    -0.07460
C1307       C  0.63753590  0.65185167  0.31459905     0.13410
C1308       C  0.64768425  0.63913409  0.35389640    -0.20940
C1309       C  0.62786804  0.60769701  0.37190945    -0.07460
C1310       C  0.59691011  0.58922310  0.35019153     0.13400
C1311       C  0.57376331  0.55518451  0.36528812    -0.24290
H1312       H  0.56325919  0.58723882  0.29574715     0.14690
H1313       H  0.67100112  0.65398248  0.37128637     0.14720
C1314       C  0.66025504  0.68480383  0.29401515    -0.24240
H1315       H  0.56566647  0.54084941  0.32670455     0.04930
H1316       H  0.55310640  0.55184536  0.38725646     0.08150
H1317       H  0.58395523  0.54616802  0.39219056     0.08150
H1318       H  0.65094386  0.69877000  0.30409454     0.08140
H1319       H  0.66343760  0.68475123  0.24813919     0.08140
H1320       H  0.68364281  0.69623747  0.31358051     0.04910
C1321       C  0.53179831  0.54044493  0.74907870    -0.20890
C1322       C  0.54780323  0.56638345  0.71300701    -0.07460
C1323       C  0.52983662  0.56893702  0.67383248     0.13410
C1324       C  0.50449616  0.54101999  0.65136435    -0.20940
C1325       C  0.49422033  0.51216358  0.67591285    -0.07460
C1326       C  0.50659022  0.51187690  0.72770092     0.13400
C1327       C  0.49582276  0.48171538  0.75670668    -0.24290
H1328       H  0.54380306  0.54012501  0.78526700     0.14690
H1329       H  0.49342029  0.54171708  0.61430774     0.14720
C1330       C  0.54281747  0.59967652  0.64529599    -0.24240
H1331       H  0.50950186  0.48592854  0.79496960     0.04930
H1332       H  0.49885752  0.46685033  0.72813084     0.08150
H1333       H  0.47077481  0.46870446  0.76892011     0.08150
H1334       H  0.54299152  0.59703722  0.59933193     0.08140
H1335       H  0.56732866  0.61764380  0.65813186     0.08140
H1336       H  0.52851382  0.60836841  0.65715507     0.04910
C1337       C  0.57901480  0.46290996  0.79911092    -0.20890
C1338       C  0.60874646  0.46874264  0.79635183    -0.07460
C1339       C  0.61243006  0.44724465  0.82403186     0.13410
C1340       C  0.58746012  0.42365218  0.85933273    -0.20940
C1341       C  0.55745003  0.41840941  0.86104863    -0.07460
C1342       C  0.55292608  0.43634180  0.82368439     0.13400
C1343       C  0.52091727  0.42731806  0.80555574    -0.24290
H1344       H  0.57558949  0.47895141  0.78001607     0.14690
H1345       H  0.59142174  0.40943735  0.88526915     0.14720
C1346       C  0.64252829  0.44976341  0.81788460    -0.24240
H1347       H  0.52287009  0.44153792  0.76950193     0.04930
H1348       H  0.50813475  0.43063902  0.83852789     0.08150
H1349       H  0.50652840  0.40254518  0.79184565     0.08150
H1350       H  0.66252498  0.47306610  0.83236818     0.08140
H1351       H  0.64642522  0.44674581  0.77338318     0.08140
H1352       H  0.64179641  0.43149649  0.84256275     0.04910
C1353       C  0.58317515  0.43017096  0.30797926    -0.20890
C1354       C  0.55484381  0.42708080  0.29807591    -0.07460
C1355       C  0.54865205  0.44617007  0.32893792     0.13410
C1356       C  0.57079759  0.46788299  0.36734269    -0.20940
C1357       C  0.59887918  0.47090239  0.37728646    -0.07460
C1358       C  0.60481533  0.45125487  0.34826239     0.13400
C1359       C  0.63393566  0.45269728  0.35969881    -0.24290
H1360       H  0.58854342  0.41627001  0.28358445     0.14690
H1361       H  0.56596686  0.48254632  0.39052197     0.14720
C1362       C  0.51946134  0.44502341  0.32001874    -0.24240
H1363       H  0.63525588  0.43598413  0.33324414     0.04930
H1364       H  0.63395294  0.44681086  0.40406953     0.08150
H1365       H  0.65511523  0.47664647  0.35102640     0.08150
H1366       H  0.49823051  0.42085426  0.32627100     0.08140
H1367       H  0.51994124  0.45322886  0.27744348     0.08140
H1368       H  0.51779452  0.46045198  0.34958728     0.04910
loop_ 
_geom_bond_atom_site_label_1 
_geom_bond_atom_site_label_2 
_geom_bond_distance 
_geom_bond_site_symmetry_2 
_ccdc_geom_bond_type 
Zr1           O2   2.440       .  S
Zr1           O3   2.487       .  S
Zr1           O4   2.503       .  S
Zr1           O7   2.556       .  S
Zr1           O9   2.414       .  S
Zr1          O10   2.377       .  S
Zr1          O11   2.443       .  S
Zr1          O12   2.415       .  S
O2           H58   0.990       .  S
O2           H66   0.990       .  S
O3           C23   1.292       .  A
O4           C25   1.299       .  A
O5          Zr15   2.387       .  S
O5           C24   1.275       .  A
O6          Zr14   2.397       .  S
O6           C25   1.279       .  A
O7           C24   1.309       .  A
O8          Zr16   2.398       .  S
O8           C23   1.273       .  A
O9          Zr14   2.427       .  S
O9          Zr16   2.373       .  S
O10         Zr15   2.386       .  S
O10         Zr16   2.373       .  S
O10          H45   0.965       .  S
O11         Zr14   2.436       .  S
O11         Zr31   2.391       .  S
O11          H48   0.964       .  S
O12         Zr15   2.404       .  S
O12         Zr31   2.425       .  S
Zr13         O38   2.434       .  S
Zr13         O32   2.434       .  S
Zr13         O40   2.357       .  S
Zr13         O28   2.431       .  S
Zr13         O19   2.400       .  S
Zr13         O20   2.391       .  S
Zr13         O21   2.364       .  S
Zr13         O22   2.371       .  S
Zr14         O33   2.434       .  S
Zr14         O26   2.435       .  S
Zr14         O27   2.522       .  S
Zr14         O20   2.377       .  S
Zr14         O21   2.383       .  S
Zr15         O17   2.434       .  S
Zr15         O39   2.438       .  S
Zr15         O41   2.442       .  S
Zr15         O19   2.361       .  S
Zr15         O22   2.336       .  S
Zr16         O42   2.436       .  S
Zr16         O43   2.440       .  S
Zr16         O18   2.440       .  S
Zr16         O19   2.397       .  S
Zr16         O20   2.368       .  S
O17          H54   0.990       .  S
O18          H49   0.990       .  S
O18          H63   0.990       .  S
O20          H46   0.963       .  S
O21         Zr31   2.390       .  S
O22         Zr31   2.345       .  S
O22          H47   0.963       .  S
C23        C1357   1.483       .  S
C24        C1309   1.513       .  S
C25        C1274   1.478       .  S
O26          H62   0.990       .  S
O27          C29   1.299       .  A
O28          C29   1.284       .  A
C29        C1338   1.514       .  S
O30         Zr31   2.440       .  S
O30          H59   0.990       .  S
Zr31         O34   2.436       .  S
Zr31         O35   2.437       .  S
Zr31         O36   2.469       .  S
O32          C37   1.286       .  A
O33          H50   0.990       .  S
O33          H65   0.990       .  S
O34          H51   0.990       .  S
O35          H55   0.990       .  S
O35          H64   0.990       .  S
O36          C37   1.290       .  A
C37        C1290   1.482       .  S
O38          H57   0.987       .  S
O38          H61   0.988       .  S
O39          H53   0.990       .  S
O39          H60   0.989       .  S
O40          C44   1.273       .  A
O41          C44   1.293       .  A
O42          H52   0.990       .  S
O43          H56   0.990       .  S
C44        C1322   1.466       .  S
Zr67         O68   2.439       .  S
Zr67         O69   2.496       .  S
Zr67         O70   2.525       .  S
Zr67         O73   2.561       .  S
Zr67         O75   2.419       .  S
Zr67         O76   2.398       .  S
Zr67         O77   2.446       .  S
Zr67         O78   2.440       .  S
O68         H124   0.990       .  S
O68         H132   0.990       .  S
O69          C89   1.295       .  A
O70          C91   1.304       .  A
O71         Zr81   2.380       .  S
O71          C90   1.274       .  A
O72         Zr80   2.397       .  S
O72          C91   1.280       .  A
O73          C90   1.310       .  A
O74         Zr82   2.384       .  S
O74          C89   1.274       .  A
O75         Zr80   2.432       .  S
O75         Zr82   2.366       .  S
O76         Zr81   2.388       .  S
O76         Zr82   2.371       .  S
O76         H111   0.966       .  S
O77         Zr80   2.428       .  S
O77         Zr97   2.406       .  S
O77         H114   0.964       .  S
O78         Zr81   2.382       .  S
O78         Zr97   2.440       .  S
Zr79        O104   2.436       .  S
Zr79         O98   2.413       .  S
Zr79        O106   2.374       .  S
Zr79         O94   2.440       .  S
Zr79         O85   2.366   1_556  S
Zr79         O86   2.388   1_556  S
Zr79         O87   2.347       .  S
Zr79         O88   2.393   1_556  S
Zr80         O99   2.435   1_554  S
Zr80         O92   2.434       .  S
Zr80         O93   2.495   1_554  S
Zr80         O86   2.399       .  S
Zr80         O87   2.402   1_554  S
Zr81         O83   2.433       .  S
Zr81        O105   2.442       .  S
Zr81        O107   2.410       .  S
Zr81         O85   2.337       .  S
Zr81         O88   2.363       .  S
Zr82        O108   2.435       .  S
Zr82        O109   2.433       .  S
Zr82         O84   2.438       .  S
Zr82         O85   2.361       .  S
Zr82         O86   2.365       .  S
O83         H120   0.990       .  S
O84         H115   0.990       .  S
O84         H129   0.990       .  S
O86         H112   0.961       .  S
O87         Zr97   2.413   1_556  S
O88         Zr97   2.373       .  S
O88         H113   0.965       .  S
C89        C1261   1.509       .  S
C90        C1306   1.512       .  S
C91        C1213   1.502       .  S
O92         H128   0.990       .  S
O93          C95   1.296       .  A
O94          C95   1.286       .  A
C95        C1242   1.504       .  S
O96         Zr97   2.441       .  S
O96         H125   0.990       .  S
Zr97        O100   2.436   1_554  S
Zr97        O101   2.439       .  S
Zr97        O102   2.468   1_554  S
O98         C103   1.280       .  A
O99         H116   0.990       .  S
O99         H131   0.990       .  S
O100        H117   0.990       .  S
O101        H121   0.990       .  S
O101        H130   0.990       .  S
O102        C103   1.288       .  A
C103       C1293   1.498       .  S
O104        H123   0.991       .  S
O104        H127   0.990       .  S
O105        H119   0.990       .  S
O105        H126   0.989       .  S
O106        C110   1.276       .  A
O107        C110   1.283   1_554  A
O108        H118   0.990       .  S
O109        H122   0.990       .  S
C110       C1229   1.468       .  S
Zr133       O134   2.435       .  S
Zr133       O135   2.428       .  S
Zr133       O136   2.489       .  S
Zr133       O139   2.593       .  S
Zr133       O141   2.391       .  S
Zr133       O142   2.372       .  S
Zr133       O143   2.455       .  S
Zr133       O144   2.409       .  S
O134        H190   0.990       .  S
O134        H198   0.990       .  S
O135        C155   1.280       .  A
O136        C157   1.300       .  A
O137       Zr147   2.405       .  S
O137        C156   1.276       .  A
O138       Zr146   2.333       .  S
O138        C157   1.267       .  A
O139        C156   1.318       .  A
O140       Zr148   2.415       .  S
O140        C155   1.272       .  A
O141       Zr146   2.403       .  S
O141       Zr148   2.339       .  S
O142       Zr147   2.372       .  S
O142       Zr148   2.391       .  S
O142        H177   0.959       .  S
O143       Zr146   2.427       .  S
O143       Zr163   2.405       .  S
O143        H180   0.965       .  S
O144       Zr147   2.404       .  S
O144       Zr163   2.439       .  S
Zr145       O170   2.448       .  S
Zr145       O164   2.411       .  S
Zr145       O172   2.375   1_554  S
Zr145       O160   2.425       .  S
Zr145       O151   2.402   1_554  S
Zr145       O152   2.362   1_554  S
Zr145       O153   2.374       .  S
Zr145       O154   2.409   1_554  S
Zr146       O165   2.436   1_556  S
Zr146       O158   2.428       .  S
Zr146       O159   2.460   1_556  S
Zr146       O152   2.366       .  S
Zr146       O153   2.347   1_556  S
Zr147       O149   2.435       .  S
Zr147       O171   2.438       .  S
Zr147       O173   2.404       .  S
Zr147       O151   2.423       .  S
Zr147       O154   2.401       .  S
Zr148       O174   2.431       .  S
Zr148       O175   2.435       .  S
Zr148       O150   2.438       .  S
Zr148       O151   2.385       .  S
Zr148       O152   2.380       .  S
O149        H186   0.990       .  S
O150        H181   0.991       .  S
O150        H195   0.989       .  S
O152        H178   0.965       .  S
O153       Zr163   2.389   1_554  S
O154       Zr163   2.326       .  S
O154        H179   0.961       .  S
C155       C1194   1.459       .  S
C156       C1146   1.540       .  S
C157       C1117   1.470       .  S
O158        H194   0.990       .  S
O159        C161   1.286       .  A
O160        C161   1.284       .  A
C161       C1178   1.483       .  S
O162       Zr163   2.440       .  S
O162        H191   0.990       .  S
Zr163       O166   2.436   1_556  S
Zr163       O167   2.438       .  S
Zr163       O168   2.492   1_556  S
O164        C169   1.283       .  A
O165        H182   0.990       .  S
O165        H197   0.990       .  S
O166        H183   0.990       .  S
O167        H187   0.990   1_556  S
O167        H196   0.990       .  S
O168        C169   1.297       .  A
C169       C1133   1.504       .  S
O170        H189   0.988       .  S
O170        H193   0.988       .  S
O171        H185   0.990       .  S
O171        H192   0.990       .  S
O172        C176   1.264       .  A
O173        C176   1.263       .  A
O174        H184   0.990       .  S
O175        H188   0.990       .  S
C176       C1162   1.471   1_556  S
Zr199       O200   2.436       .  S
Zr199       O201   2.447       .  S
Zr199       O202   2.505       .  S
Zr199       O205   2.596       .  S
Zr199       O207   2.421       .  S
Zr199       O208   2.388       .  S
Zr199       O209   2.448       .  S
Zr199       O210   2.396       .  S
O200        H256   0.990       .  S
O200        H264   0.990       .  S
O201        C221   1.284       .  A
O202        C223   1.300       .  A
O203       Zr213   2.425       .  S
O203        C222   1.280       .  A
O204       Zr212   2.373       .  S
O204        C223   1.274       .  A
O205        C222   1.316       .  A
O206       Zr214   2.415       .  S
O206        C221   1.273       .  A
O207       Zr212   2.412       .  S
O207       Zr214   2.363       .  S
O208       Zr213   2.360       .  S
O208       Zr214   2.397       .  S
O208        H243   0.965       .  S
O209       Zr212   2.428       .  S
O209       Zr229   2.402       .  S
O209        H246   0.966       .  S
O210       Zr213   2.394       .  S
O210       Zr229   2.422       .  S
Zr211       O236   2.445       .  S
Zr211       O230   2.454       .  S
Zr211       O238   2.391       .  S
Zr211       O226   2.419       .  S
Zr211       O217   2.459       .  S
Zr211       O218   2.406       .  S
Zr211       O219   2.373       .  S
Zr211       O220   2.431       .  S
Zr212       O231   2.432       .  S
Zr212       O224   2.435       .  S
Zr212       O225   2.479       .  S
Zr212       O218   2.382       .  S
Zr212       O219   2.381       .  S
Zr213       O215   2.427   1_655  S
Zr213       O237   2.428       .  S
Zr213       O239   2.407       .  S
Zr213       O217   2.390       .  S
Zr213       O220   2.377       .  S
Zr214       O240   2.435       .  S
Zr214       O241   2.437       .  S
Zr214       O216   2.439       .  S
Zr214       O217   2.384       .  S
Zr214       O218   2.390       .  S
O215        H252   0.990       .  S
O216        H247   0.990       .  S
O216        H261   0.990       .  S
O218        H244   0.964       .  S
O219       Zr229   2.398       .  S
O220       Zr229   2.355       .  S
O220        H245   0.960       .  S
C221       C1082   1.468       .  S
C222       C1149   1.567   1_655  S
C223       C1277   1.479       .  S
O224        H260   0.990       .  S
O225        C227   1.288       .  A
O226        C227   1.280       .  A
C227       C1069   1.487       .  S
O228       Zr229   2.438       .  S
O228        H257   0.990       .  S
Zr229       O232   2.436       .  S
Zr229       O233   2.439   1_655  S
Zr229       O234   2.456       .  S
O230        C235   1.290       .  A
O231        H248   0.990       .  S
O231        H263   0.990       .  S
O232        H249   0.990       .  S
O233        H253   0.990       .  S
O233        H262   0.990       .  S
O234        C235   1.287       .  A
C235       C1130   1.497   1_655  S
O236        H255   0.991       .  S
O236        H259   0.988       .  S
O237        H251   0.986   1_655  S
O237        H258   0.990       .  S
O238        C242   1.255       .  A
O239        C242   1.268       .  A
O240        H250   0.990       .  S
O241        H254   0.990       .  S
C242       C1098   1.423   1_655  S
Zr265       O266   2.434       .  S
Zr265       O267   2.453       .  S
Zr265       O268   2.435       .  S
Zr265       O271   2.578       .  S
Zr265       O273   2.412       .  S
Zr265       O274   2.391       .  S
Zr265       O275   2.473       .  S
Zr265       O276   2.424       .  S
O266        H322   0.990       .  S
O266        H330   0.990       .  S
O267        C287   1.285       .  A
O268        C289   1.275       .  A
O269       Zr279   2.397       .  S
O269        C288   1.275       .  A
O270       Zr278   2.344       .  S
O270        C289   1.246       .  A
O271        C288   1.314       .  A
O272       Zr280   2.398       .  S
O272        C287   1.270       .  A
O273       Zr278   2.439       .  S
O273       Zr280   2.325       .  S
O274       Zr279   2.379       .  S
O274       Zr280   2.398       .  S
O274        H309   0.966       .  S
O275       Zr278   2.457       .  S
O275       Zr295   2.414       .  S
O275        H312   0.966       .  S
O276       Zr279   2.378       .  S
O276       Zr295   2.457       .  S
Zr277       O302   2.458       .  S
Zr277       O296   2.434       .  S
Zr277       O304   2.360       .  S
Zr277       O292   2.441       .  S
Zr277       O283   2.370       .  S
Zr277       O284   2.370       .  S
Zr277       O285   2.361       .  S
Zr277       O286   2.425       .  S
Zr278       O297   2.436       .  S
Zr278       O290   2.436       .  S
Zr278       O291   2.437       .  S
Zr278       O284   2.383       .  S
Zr278       O285   2.380       .  S
Zr279       O281   2.433       .  S
Zr279       O303   2.435       .  S
Zr279       O305   2.381       .  S
Zr279       O283   2.386       .  S
Zr279       O286   2.425       .  S
Zr280       O306   2.437       .  S
Zr280       O307   2.434       .  S
Zr280       O282   2.441       .  S
Zr280       O283   2.355       .  S
Zr280       O284   2.384       .  S
O281        H318   0.990       .  S
O282        H313   0.990       .  S
O282        H327   0.990       .  S
O284        H310   0.959       .  S
O285       Zr295   2.414       .  S
O286       Zr295   2.355       .  S
O286        H311   0.961       .  S
C287       C1050   1.475       .  S
C288       C1002   1.539       .  S
C289        C973   1.451       .  S
O290        H326   0.991       .  S
O291        C293   1.280       .  A
O292        C293   1.285       .  A
C293       C1034   1.478       .  S
O294       Zr295   2.441       .  S
O294        H323   0.990       .  S
Zr295       O298   2.436       .  S
Zr295       O299   2.439       .  S
Zr295       O300   2.490       .  S
O296        C301   1.289       .  A
O297        H314   0.990       .  S
O297        H329   0.990       .  S
O298        H315   0.990       .  S
O299        H319   0.990       .  S
O299        H328   0.989       .  S
O300        C301   1.294       .  A
C301        C989   1.512       .  S
O302        H321   0.988       .  S
O302        H325   0.989       .  S
O303        H317   0.990       .  S
O303        H324   0.988       .  S
O304        C308   1.259       .  A
O305        C308   1.259       .  A
O306        H316   0.990       .  S
O307        H320   0.990       .  S
C308       C1018   1.471       .  S
Zr331       O332   2.437       .  S
Zr331       O333   2.469       .  S
Zr331       O334   2.525       .  S
Zr331       O337   2.587       .  S
Zr331       O339   2.417       .  S
Zr331       O340   2.392       .  S
Zr331       O341   2.441       .  S
Zr331       O342   2.407       .  S
O332        H388   0.990       .  S
O332        H396   0.990       .  S
O333        C353   1.287       .  A
O334        C355   1.304       .  A
O335       Zr345   2.410       .  S
O335        C354   1.280       .  A
O336       Zr344   2.378       .  S
O336        C355   1.275       .  A
O337        C354   1.316       .  A
O338       Zr346   2.394       .  S
O338        C353   1.270       .  A
O339       Zr344   2.413       .  S
O339       Zr346   2.375       .  S
O340       Zr345   2.377       .  S
O340       Zr346   2.385       .  S
O340        H375   0.966       .  S
O341       Zr344   2.433       .  S
O341       Zr361   2.401       .  S
O341        H378   0.966       .  S
O342       Zr345   2.397       .  S
O342       Zr361   2.412       .  S
Zr343       O368   2.441       .  S
Zr343       O362   2.464       .  S
Zr343       O370   2.345       .  S
Zr343       O358   2.423       .  S
Zr343       O349   2.411       .  S
Zr343       O350   2.383       .  S
Zr343       O351   2.361       .  S
Zr343       O352   2.383       .  S
Zr344       O363   2.433       .  S
Zr344       O356   2.435       .  S
Zr344       O357   2.490       .  S
Zr344       O350   2.375       .  S
Zr344       O351   2.382       .  S
Zr345       O347   2.436   1_565  S
Zr345       O369   2.436       .  S
Zr345       O371   2.409       .  S
Zr345       O349   2.379       .  S
Zr345       O352   2.361       .  S
Zr346       O372   2.441       .  S
Zr346       O373   2.437       .  S
Zr346       O348   2.439       .  S
Zr346       O349   2.386       .  S
Zr346       O350   2.376       .  S
O347        H384   0.991       .  S
O348        H379   0.990       .  S
O348        H393   0.990       .  S
O350        H376   0.961       .  S
O351       Zr361   2.398       .  S
O352       Zr361   2.367       .  S
O352        H377   0.963       .  S
C353        C941   1.488       .  S
C354       C1005   1.558   1_565  S
C355       C1210   1.486       .  S
O356        H392   0.990       .  S
O357        C359   1.292       .  A
O358        C359   1.279       .  A
C359        C925   1.494       .  S
O360       Zr361   2.438       .  S
O360        H389   0.990       .  S
Zr361       O364   2.436       .  S
Zr361       O365   2.439       .  S
Zr361       O366   2.443       .  S
O362        C367   1.289       .  A
O363        H380   0.990       .  S
O363        H395   0.990       .  S
O364        H381   0.990       .  S
O365        H385   0.990   1_565  S
O365        H394   0.990   1_565  S
O366        C367   1.284       .  A
C367        C986   1.508   1_565  S
O368        H387   0.990       .  S
O368        H391   0.989       .  S
O369        H383   0.990       .  S
O369        H390   0.990       .  S
O370        C374   1.263       .  A
O371        C374   1.285       .  A
O372        H382   0.989       .  S
O373        H386   0.990       .  S
C374        C957   1.433   1_565  S
Zr397       O398   2.438       .  S
Zr397       O399   2.444       .  S
Zr397       O400   2.471       .  S
Zr397       O403   2.555       .  S
Zr397       O405   2.418       .  S
Zr397       O406   2.397       .  S
Zr397       O407   2.439       .  S
Zr397       O408   2.398       .  S
O398        H454   0.990       .  S
O398        H462   0.990       .  S
O399        C419   1.283       .  A
O400        C421   1.293       .  A
O401       Zr411   2.397       .  S
O401        C420   1.274       .  A
O402       Zr410   2.376       .  S
O402        C421   1.276       .  A
O403        C420   1.305       .  A
O404       Zr412   2.393       .  S
O404        C419   1.268       .  A
O405       Zr410   2.400       .  S
O405       Zr412   2.356       .  S
O406       Zr411   2.396       .  S
O406       Zr412   2.410       .  S
O406        H441   0.966       .  S
O407       Zr410   2.422       .  S
O407       Zr427   2.391       .  S
O407        H444   0.966       .  S
O408       Zr411   2.396       .  S
O408       Zr427   2.420       .  S
Zr409       O434   2.436       .  S
Zr409       O428   2.486       .  S
Zr409       O436   2.444       .  S
Zr409       O424   2.404       .  S
Zr409       O415   2.361       .  S
Zr409       O416   2.419       .  S
Zr409       O417   2.374       .  S
Zr409       O418   2.404       .  S
Zr410       O429   2.433       .  S
Zr410       O422   2.434       .  S
Zr410       O423   2.462       .  S
Zr410       O416   2.369       .  S
Zr410       O417   2.383       .  S
Zr411       O413   2.445       .  S
Zr411       O435   2.443       .  S
Zr411       O437   2.471       .  S
Zr411       O415   2.341       .  S
Zr411       O418   2.416       .  S
Zr412       O438   2.443       .  S
Zr412       O439   2.440       .  S
Zr412       O414   2.441       .  S
Zr412       O415   2.332       .  S
Zr412       O416   2.402       .  S
O413        H450   0.990       .  S
O414        H445   0.990       .  S
O414        H459   0.990       .  S
O416        H442   0.961       .  S
O417       Zr427   2.392       .  S
O418       Zr427   2.383       .  S
O418        H443   0.960       .  S
C419       C1053   1.476       .  S
C420        C909   1.542       .  S
C421        C877   1.466       .  S
O422        H458   0.990       .  S
O423        C425   1.286       .  A
O424        C425   1.277       .  A
C425       C1037   1.468       .  S
O426       Zr427   2.439       .  S
O426        H455   0.990       .  S
Zr427       O430   2.437       .  S
Zr427       O431   2.441       .  S
Zr427       O432   2.428       .  S
O428        C433   1.295       .  A
O429        H446   0.990       .  S
O429        H461   0.990       .  S
O430        H447   0.990       .  S
O431        H451   0.990       .  S
O431        H460   0.990       .  S
O432        C433   1.280       .  A
C433        C890   1.499       .  S
O434        H453   0.990       .  S
O434        H457   0.990       .  S
O435        H449   0.990       .  S
O435        H456   0.990       .  S
O436        C440   1.272       .  A
O437        C440   1.279       .  A
O438        H448   0.989       .  S
O439        H452   0.990       .  S
C440        C954   1.432       .  S
Zr463       O464   2.435       .  S
Zr463       O465   2.476       .  S
Zr463       O466   2.447       .  S
Zr463       O469   2.541       .  S
Zr463       O471   2.409       .  S
Zr463       O472   2.379       .  S
Zr463       O473   2.451       .  S
Zr463       O474   2.415       .  S
O464        H520   0.990       .  S
O464        H528   0.990       .  S
O465        C485   1.289       .  A
O466        C487   1.288       .  A
O467       Zr477   2.410       .  S
O467        C486   1.279       .  A
O468       Zr476   2.371       .  S
O468        C487   1.260       .  A
O469        C486   1.306       .  A
O470       Zr478   2.393       .  S
O470        C485   1.269       .  A
O471       Zr476   2.414       .  S
O471       Zr478   2.357       .  S
O472       Zr477   2.385       .  S
O472       Zr478   2.396       .  S
O472        H507   0.966       .  S
O473       Zr476   2.454       .  S
O473       Zr493   2.388       .  S
O473        H510   0.965       .  S
O474       Zr477   2.394       .  S
O474       Zr493   2.433       .  S
Zr475       O500   2.439       .  S
Zr475       O494   2.414       .  S
Zr475       O502   2.341       .  S
Zr475       O490   2.420       .  S
Zr475       O481   2.410       .  S
Zr475       O482   2.374       .  S
Zr475       O483   2.354       .  S
Zr475       O484   2.403       .  S
Zr476       O495   2.441       .  S
Zr476       O488   2.438       .  S
Zr476       O489   2.499       .  S
Zr476       O482   2.366       .  S
Zr476       O483   2.374       .  S
Zr477       O479   2.434   1_565  S
Zr477       O501   2.434       .  S
Zr477       O503   2.395       .  S
Zr477       O481   2.419       .  S
Zr477       O484   2.404       .  S
Zr478       O504   2.440       .  S
Zr478       O505   2.437       .  S
Zr478       O480   2.439       .  S
Zr478       O481   2.360       .  S
Zr478       O482   2.382       .  S
O479        H516   0.990       .  S
O480        H511   0.990       .  S
O480        H525   0.989       .  S
O482        H508   0.961       .  S
O483       Zr493   2.394       .  S
O484       Zr493   2.342       .  S
O484        H509   0.962       .  S
C485        C938   1.487       .  S
C486        C906   1.520       .  S
C487       C1114   1.462       .  S
O488        H524   0.990       .  S
O489        C491   1.295       .  A
O490        C491   1.278       .  A
C491        C922   1.491       .  S
O492       Zr493   2.440       .  S
O492        H521   0.990       .  S
Zr493       O496   2.437       .  S
Zr493       O497   2.436       .  S
Zr493       O498   2.474       .  S
O494        C499   1.280       .  A
O495        H512   0.990       .  S
O495        H527   0.990       .  S
O496        H513   0.990       .  S
O497        H517   0.990       .  S
O497        H526   0.990       .  S
O498        C499   1.291       .  A
C499        C893   1.509       .  S
O500        H519   0.991       .  S
O500        H523   0.988       .  S
O501        H515   0.989   1_565  S
O501        H522   0.989       .  S
O502        C506   1.259       .  A
O503        C506   1.264       .  A
O504        H514   0.990       .  S
O505        H518   0.990       .  S
C506       C1021   1.440       .  S
Zr529       O530   2.441       .  S
Zr529       O531   2.488       .  S
Zr529       O532   2.456       .  S
Zr529       O535   2.510       .  S
Zr529       O537   2.405       .  S
Zr529       O538   2.380       .  S
Zr529       O539   2.438       .  S
Zr529       O540   2.408       .  S
O530        H586   0.990       .  S
O530        H594   0.990       .  S
O531        C551   1.290       .  A
O532        C553   1.289       .  A
O533       Zr543   2.387       .  S
O533        C552   1.276       .  A
O534       Zr542   2.392       .  S
O534        C553   1.278       .  A
O535        C552   1.300       .  A
O536       Zr544   2.390       .  S
O536        C551   1.268       .  A
O537       Zr542   2.414       .  S
O537       Zr544   2.359       .  S
O538       Zr543   2.399       .  S
O538       Zr544   2.382       .  S
O538        H573   0.966       .  S
O539       Zr542   2.432       .  S
O539       Zr559   2.398       .  S
O539        H576   0.965       .  S
O540       Zr543   2.403       .  S
O540       Zr559   2.415       .  S
Zr541       O566   2.464       .  S
Zr541       O560   2.454       .  S
Zr541       O568   2.408       .  S
Zr541       O556   2.435       .  S
Zr541       O547   2.410       .  S
Zr541       O548   2.397       .  S
Zr541       O549   2.369       .  S
Zr541       O550   2.403       .  S
Zr542       O561   2.434       .  S
Zr542       O554   2.434       .  S
Zr542       O555   2.507       .  S
Zr542       O548   2.372       .  S
Zr542       O549   2.381       .  S
Zr543       O545   2.437       .  S
Zr543       O567   2.442       .  S
Zr543       O569   2.421       .  S
Zr543       O547   2.387       .  S
Zr543       O550   2.390       .  S
Zr544       O570   2.440       .  S
Zr544       O571   2.423       .  S
Zr544       O546   2.442       .  S
Zr544       O547   2.377       .  S
Zr544       O548   2.371       .  S
O545        H582   0.990       .  S
O546        H577   0.990       .  S
O546        H591   0.990       .  S
O548        H574   0.959       .  S
O549       Zr559   2.403       .  S
O550       Zr559   2.384       .  S
O550        H575   0.965       .  S
C551       C1258   1.500       .  S
C552        C861   1.513       .  S
C553        C826   1.459       .  S
O554        H590   0.990       .  S
O555        C557   1.297       .  A
O556        C557   1.281       .  A
C557       C1245   1.501       .  S
O558       Zr559   2.441       .  S
O558        H587   0.990       .  S
Zr559       O562   2.437       .  S
Zr559       O563   2.438       .  S
Zr559       O564   2.441       .  S
O560        C565   1.281       .  A
O561        H578   0.990       .  S
O561        H593   0.990       .  S
O562        H579   0.990       .  S
O563        H583   0.990       .  S
O563        H592   0.990       .  S
O564        C565   1.278       .  A
C565        C842   1.501       .  S
O566        H585   0.991       .  S
O566        H589   0.990       .  S
O567        H581   0.990       .  S
O567        H588   0.990       .  S
O568        C572   1.264       .  A
O569        C572   1.276       .  A
O570        H580   0.989       .  S
O571        H584   0.989       .  S
C572       C1325   1.454       .  S
Zr595       O596   2.442       .  S
Zr595       O597   2.499       .  S
Zr595       O598   2.471       .  S
Zr595       O601   2.512       .  S
Zr595       O603   2.409       .  S
Zr595       O604   2.375       .  S
Zr595       O605   2.441       .  S
Zr595       O606   2.412       .  S
O596        H652   0.990       .  S
O596        H660   0.990       .  S
O597        C617   1.293       .  A
O598        C619   1.292       .  A
O599       Zr609   2.383       .  S
O599        C618   1.275       .  A
O600       Zr608   2.386       .  S
O600        C619   1.277       .  A
O601        C618   1.300       .  A
O602       Zr610   2.395       .  S
O602        C617   1.270       .  A
O603       Zr608   2.421       .  S
O603       Zr610   2.364       .  S
O604       Zr609   2.388       .  S
O604       Zr610   2.387       .  S
O604        H639   0.962       .  S
O605       Zr608   2.434       .  S
O605       Zr625   2.402       .  S
O605        H642   0.965       .  S
O606       Zr609   2.403       .  S
O606       Zr625   2.419       .  S
Zr607       O632   2.440       .  S
Zr607       O626   2.422       .  S
Zr607       O634   2.400       .  S
Zr607       O622   2.419       .  S
Zr607       O613   2.395   1_556  S
Zr607       O614   2.397   1_556  S
Zr607       O615   2.363       .  S
Zr607       O616   2.386   1_556  S
Zr608       O627   2.434   1_554  S
Zr608       O620   2.436       .  S
Zr608       O621   2.504   1_554  S
Zr608       O614   2.380       .  S
Zr608       O615   2.383   1_554  S
Zr609       O611   2.438       .  S
Zr609       O633   2.441       .  S
Zr609       O635   2.424       .  S
Zr609       O613   2.380       .  S
Zr609       O616   2.375       .  S
Zr610       O636   2.436       .  S
Zr610       O637   2.428       .  S
Zr610       O612   2.438       .  S
Zr610       O613   2.372       .  S
Zr610       O614   2.379       .  S
O611        H648   0.990       .  S
O612        H643   0.990       .  S
O612        H657   0.989       .  S
O614        H640   0.964       .  S
O615       Zr625   2.381   1_556  S
O616       Zr625   2.369       .  S
O616        H641   0.965       .  S
C617       C1354   1.493       .  S
C618        C858   1.511       .  S
C619        C874   1.459       .  S
O620        H656   0.990       .  S
O621        C623   1.292       .  A
O622        C623   1.275       .  A
C623       C1341   1.519       .  S
O624       Zr625   2.441       .  S
O624        H653   0.990       .  S
Zr625       O628   2.437   1_554  S
Zr625       O629   2.437       .  S
Zr625       O630   2.466   1_554  S
O626        C631   1.287       .  A
O627        H644   0.990       .  S
O627        H659   0.990       .  S
O628        H645   0.990       .  S
O629        H649   0.990       .  S
O629        H658   0.990       .  S
O630        C631   1.288       .  A
C631        C845   1.494       .  S
O632        H651   0.988       .  S
O632        H655   0.988       .  S
O633        H647   0.990       .  S
O633        H654   0.990       .  S
O634        C638   1.266   1_556  A
O635        C638   1.278       .  A
O636        H646   0.990       .  S
O637        H650   0.990       .  S
C638       C1226   1.459   1_554  S
Zr661       O662   2.437       .  S
Zr661       O663   2.440       .  S
Zr661       O664   2.455       .  S
Zr661       O667   2.544       .  S
Zr661       O669   2.424       .  S
Zr661       O670   2.383       .  S
Zr661       O671   2.438       .  S
Zr661       O672   2.393       .  S
O662        H718   0.990       .  S
O662        H726   0.990       .  S
O663        C683   1.280       .  A
O664        C685   1.290       .  A
O665       Zr675   2.408       .  S
O665        C684   1.275       .  A
O666       Zr674   2.390       .  S
O666        C685   1.278       .  A
O667        C684   1.306       .  A
O668       Zr676   2.409       .  S
O668        C683   1.268       .  A
O669       Zr674   2.403       .  S
O669       Zr676   2.352       .  S
O670       Zr675   2.372       .  S
O670       Zr676   2.419       .  S
O670        H705   0.955       .  S
O671       Zr674   2.424       .  S
O671       Zr691   2.391       .  S
O671        H708   0.966       .  S
O672       Zr675   2.382       .  S
O672       Zr691   2.411       .  S
Zr673       O698   2.441       .  S
Zr673       O692   2.466       .  S
Zr673       O700   2.441       .  S
Zr673       O688   2.399       .  S
Zr673       O679   2.352       .  S
Zr673       O680   2.420       .  S
Zr673       O681   2.375       .  S
Zr673       O682   2.405       .  S
Zr674       O693   2.434       .  S
Zr674       O686   2.435       .  S
Zr674       O687   2.469       .  S
Zr674       O680   2.376       .  S
Zr674       O681   2.382       .  S
Zr675       O677   2.437       .  S
Zr675       O699   2.433       .  S
Zr675       O701   2.448       .  S
Zr675       O679   2.350       .  S
Zr675       O682   2.398       .  S
Zr676       O702   2.431       .  S
Zr676       O703   2.438       .  S
Zr676       O678   2.438       .  S
Zr676       O679   2.340       .  S
Zr676       O680   2.409       .  S
O677        H714   0.990       .  S
O678        H709   0.990       .  S
O678        H723   0.990       .  S
O680        H706   0.964       .  S
O681       Zr691   2.388       .  S
O682       Zr691   2.402       .  S
O682        H707   0.964       .  S
C683       C1197   1.471       .  S
C684        C813   1.523       .  S
C685        C829   1.459       .  S
O686        H722   0.990       .  S
O687        C689   1.289       .  A
O688        C689   1.276       .  A
C689       C1181   1.473       .  S
O690       Zr691   2.440       .  S
O690        H719   0.990       .  S
Zr691       O694   2.437       .  S
Zr691       O695   2.442       .  S
Zr691       O696   2.408       .  S
O692        C697   1.290       .  A
O693        H710   0.990       .  S
O693        H725   0.990       .  S
O694        H711   0.990       .  S
O695        H715   0.990       .  S
O695        H724   0.990       .  S
O696        C697   1.278       .  A
C697        C794   1.490       .  S
O698        H717   0.990       .  S
O698        H721   0.990       .  S
O699        H713   0.990       .  S
O699        H720   0.990       .  S
O700        C704   1.275       .  A
O701        C704   1.278       .  A
O702        H712   0.990       .  S
O703        H716   0.990       .  S
C704       C1101   1.431       .  S
Zr727       O728   2.435       .  S
Zr727       O729   2.446       .  S
Zr727       O730   2.459       .  S
Zr727       O733   2.548       .  S
Zr727       O735   2.407       .  S
Zr727       O736   2.379       .  S
Zr727       O737   2.433       .  S
Zr727       O738   2.404       .  S
O728        H784   0.990       .  S
O728        H792   0.990       .  S
O729        C749   1.285       .  A
O730        C751   1.291       .  A
O731       Zr741   2.420       .  S
O731        C750   1.282       .  A
O732       Zr740   2.340       .  S
O732        C751   1.260       .  A
O733        C750   1.308       .  A
O734       Zr742   2.408       .  S
O734        C749   1.274       .  A
O735       Zr740   2.416       .  S
O735       Zr742   2.358       .  S
O736       Zr741   2.379       .  S
O736       Zr742   2.384       .  S
O736        H771   0.964       .  S
O737       Zr740   2.443       .  S
O737       Zr757   2.381       .  S
O737        H774   0.965       .  S
O738       Zr741   2.399       .  S
O738       Zr757   2.418       .  S
Zr739       O764   2.446       .  S
Zr739       O758   2.426       .  S
Zr739       O766   2.334       .  S
Zr739       O754   2.421       .  S
Zr739       O745   2.422   1_554  S
Zr739       O746   2.388   1_554  S
Zr739       O747   2.353       .  S
Zr739       O748   2.403       .  S
Zr740       O759   2.436   1_556  S
Zr740       O752   2.437       .  S
Zr740       O753   2.481   1_556  S
Zr740       O746   2.369       .  S
Zr740       O747   2.369   1_556  S
Zr741       O743   2.434   1_655  S
Zr741       O765   2.435       .  S
Zr741       O767   2.419       .  S
Zr741       O745   2.406       .  S
Zr741       O748   2.393   1_556  S
Zr742       O768   2.437       .  S
Zr742       O769   2.435       .  S
Zr742       O744   2.436       .  S
Zr742       O745   2.374       .  S
Zr742       O746   2.390       .  S
O743        H780   0.990       .  S
O744        H775   0.990       .  S
O744        H789   0.990       .  S
O746        H772   0.963   1_556  S
O747       Zr757   2.395   1_554  S
O748       Zr757   2.354   1_554  S
O748        H773   0.962       .  S
C749       C1085   1.482       .  S
C750        C810   1.545       .  S
C751        C970   1.450       .  S
O752        H788   0.990       .  S
O753        C755   1.290       .  A
O754        C755   1.279       .  A
C755       C1066   1.482       .  S
O756       Zr757   2.441       .  S
O756        H785   0.990       .  S
Zr757       O760   2.437   1_556  S
Zr757       O761   2.435       .  S
Zr757       O762   2.451   1_556  S
O758        C763   1.285       .  A
O759        H776   0.990       .  S
O759        H791   0.990       .  S
O760        H777   0.990       .  S
O761        H781   0.990   1_556  S
O761        H790   0.990       .  S
O762        C763   1.286       .  A
C763        C797   1.502       .  S
O764        H783   0.991       .  S
O764        H787   0.990       .  S
O765        H779   0.990       .  S
O765        H786   0.990       .  S
O766        C770   1.258       .  A
O767        C770   1.272   1_556  A
O768        H778   0.990       .  S
O769        H782   0.990       .  S
C770       C1165   1.456       .  S
C793        C794   1.406       .  A
C793        C798   1.410       .  A
C793        H800   1.084       .  S
C794        C795   1.409       .  A
C795        C796   1.399   1_455  A
C795        C802   1.500       .  S
C796        C797   1.412       .  A
C796        H801   1.083       .  S
C797        C798   1.423   1_655  A
C798        C799   1.506   1_455  S
C799        H803   1.111   1_655  S
C799        H804   1.108   1_655  S
C799        H805   1.110       .  S
C802        H806   1.109       .  S
C802        H807   1.100       .  S
C802        H808   1.110       .  S
C809        C810   1.424   1_455  A
C809        C814   1.420       .  A
C809        H816   1.083       .  S
C810        C811   1.423       .  A
C811        C812   1.431   1_655  A
C811        C818   1.503       .  S
C812        C813   1.419       .  A
C812        H817   1.084       .  S
C813        C814   1.410       .  A
C814        C815   1.505       .  S
C815        H819   1.111       .  S
C815        H820   1.109       .  S
C815        H821   1.110       .  S
C818        H822   1.106       .  S
C818        H823   1.110       .  S
C818        H824   1.111       .  S
C825        C826   1.399       .  A
C825        C830   1.395       .  A
C825        H832   1.085       .  S
C826        C827   1.412       .  A
C827        C828   1.403       .  A
C827        C834   1.506       .  S
C828        C829   1.400       .  A
C828        H833   1.084       .  S
C829        C830   1.412       .  A
C830        C831   1.509       .  S
C831        H835   1.111       .  S
C831        H836   1.110       .  S
C831        H837   1.106       .  S
C834        H838   1.110       .  S
C834        H839   1.109       .  S
C834        H840   1.111       .  S
C841        C842   1.414       .  A
C841        C846   1.422       .  A
C841        H848   1.083       .  S
C842        C843   1.413       .  A
C843        C844   1.390       .  A
C843        C850   1.497       .  S
C844        C845   1.397       .  A
C844        H849   1.077       .  S
C845        C846   1.417       .  A
C846        C847   1.504       .  S
C847        H851   1.111       .  S
C847        H852   1.110       .  S
C847        H853   1.110       .  S
C850        H854   1.110       .  S
C850        H855   1.098       .  S
C850        H856   1.096       .  S
C857        C858   1.419       .  A
C857        C862   1.412       .  A
C857        H864   1.084       .  S
C858        C859   1.412       .  A
C859        C860   1.413       .  A
C859        C866   1.506       .  S
C860        C861   1.420       .  A
C860        H865   1.084       .  S
C861        C862   1.413       .  A
C862        C863   1.507       .  S
C863        H867   1.111       .  S
C863        H868   1.110       .  S
C863        H869   1.110       .  S
C866        H870   1.109       .  S
C866        H871   1.110       .  S
C866        H872   1.111       .  S
C873        C874   1.395       .  A
C873        C878   1.394       .  A
C873        H880   1.085       .  S
C874        C875   1.413       .  A
C875        C876   1.405       .  A
C875        C882   1.506       .  S
C876        C877   1.401       .  A
C876        H881   1.084       .  S
C877        C878   1.418       .  A
C878        C879   1.510       .  S
C879        H883   1.111       .  S
C879        H884   1.108       .  S
C879        H885   1.110       .  S
C882        H886   1.110       .  S
C882        H887   1.110       .  S
C882        H888   1.111       .  S
C889        C890   1.394       .  A
C889        C894   1.402   1_545  A
C889        H896   1.074       .  S
C890        C891   1.420       .  A
C891        C892   1.417   1_545  A
C891        C898   1.505       .  S
C892        C893   1.411       .  A
C892        H897   1.083       .  S
C893        C894   1.426       .  A
C894        C895   1.506       .  S
C895        H899   1.097       .  S
C895        H900   1.110       .  S
C895        H901   1.106       .  S
C898        H902   1.109       .  S
C898        H903   1.110       .  S
C898        H904   1.111       .  S
C905        C906   1.417   1_545  A
C905        C910   1.437       .  A
C905        H912   1.083   1_545  S
C906        C907   1.415   1_565  A
C907        C908   1.410       .  A
C907        C914   1.510   1_545  S
C908        C909   1.418   1_556  A
C908        H913   1.083   1_556  S
C909        C910   1.426   1_554  A
C910        C911   1.502   1_556  S
C911        H915   1.111   1_554  S
C911        H916   1.110   1_554  S
C911        H917   1.111       .  S
C914        H918   1.106       .  S
C914        H919   1.110       .  S
C914        H920   1.111       .  S
C921        C922   1.402       .  A
C921        C926   1.413       .  A
C921        H928   1.084       .  S
C922        C923   1.419       .  A
C923        C924   1.410       .  A
C923        C930   1.506       .  S
C924        C925   1.402       .  A
C924        H929   1.084       .  S
C925        C926   1.421       .  A
C926        C927   1.504       .  S
C927        H931   1.110       .  S
C927        H932   1.107       .  S
C927        H933   1.110       .  S
C930        H934   1.110       .  S
C930        H935   1.108       .  S
C930        H936   1.111       .  S
C937        C938   1.411       .  A
C937        C942   1.403       .  A
C937        H944   1.080       .  S
C938        C939   1.409       .  A
C939        C940   1.405   1_556  A
C939        C946   1.507   1_556  S
C940        C941   1.413       .  A
C940        H945   1.082       .  S
C941        C942   1.409   1_554  A
C942        C943   1.508       .  S
C943        H947   1.111       .  S
C943        H948   1.110       .  S
C943        H949   1.109       .  S
C946        H950   1.111       .  S
C946        H951   1.108   1_554  S
C946        H952   1.110       .  S
C953        C954   1.398       .  A
C953        C958   1.379       .  A
C953        H960   1.068       .  S
C954        C955   1.407       .  A
C955        C956   1.388       .  A
C955        C962   1.511       .  S
C956        C957   1.400       .  A
C956        H961   1.069       .  S
C957        C958   1.389       .  A
C958        C959   1.504   1_545  S
C959        H963   1.110       .  S
C959        H964   1.111       .  S
C959        H965   1.110       .  S
C962        H966   1.110       .  S
C962        H967   1.107       .  S
C962        H968   1.111       .  S
C969        C970   1.397       .  A
C969        C974   1.384       .  A
C969        H976   1.085       .  S
C970        C971   1.421       .  A
C971        C972   1.385       .  A
C971        C978   1.509       .  S
C972        C973   1.389       .  A
C972        H977   1.083       .  S
C973        C974   1.417       .  A
C974        C975   1.512       .  S
C975        H979   1.111       .  S
C975        H980   1.110       .  S
C975        H981   1.109       .  S
C978        H982   1.110       .  S
C978        H983   1.110       .  S
C978        H984   1.111       .  S
C985        C986   1.417       .  A
C985        C990   1.423       .  A
C985        H992   1.083       .  S
C986        C987   1.415       .  A
C987        C988   1.400       .  A
C987        C994   1.511   1_545  S
C988        C989   1.402       .  A
C988        H993   1.071       .  S
C989        C990   1.418       .  A
C990        C991   1.505       .  S
C991        H995   1.111       .  S
C991        H996   1.109       .  S
C991        H997   1.111       .  S
C994        H998   1.110       .  S
C994        H999   1.093       .  S
C994       H1000   1.106       .  S
C1001      C1002   1.422       .  A
C1001      C1006   1.433       .  A
C1001      H1008   1.084       .  S
C1002      C1003   1.415       .  A
C1003      C1004   1.430   1_556  A
C1003      C1010   1.506   1_556  S
C1004      C1005   1.430       .  A
C1004      H1009   1.083       .  S
C1005      C1006   1.422   1_554  A
C1006      C1007   1.504   1_545  S
C1007      H1011   1.111       .  S
C1007      H1012   1.110       .  S
C1007      H1013   1.110       .  S
C1010      H1014   1.111   1_554  S
C1010      H1015   1.110       .  S
C1010      H1016   1.111       .  S
C1017      C1018   1.397       .  A
C1017      C1022   1.386       .  A
C1017      H1024   1.071       .  S
C1018      C1019   1.405       .  A
C1019      C1020   1.391   1_545  A
C1019      C1026   1.506       .  S
C1020      C1021   1.409       .  A
C1020      H1025   1.083       .  S
C1021      C1022   1.407   1_565  A
C1022      C1023   1.498       .  S
C1023      H1027   1.108       .  S
C1023      H1028   1.109       .  S
C1023      H1029   1.104       .  S
C1026      H1030   1.107       .  S
C1026      H1031   1.107       .  S
C1026      H1032   1.111   1_545  S
C1033      C1034   1.398       .  A
C1033      C1038   1.406       .  A
C1033      H1040   1.084       .  S
C1034      C1035   1.418       .  A
C1035      C1036   1.400       .  A
C1035      C1042   1.503       .  S
C1036      C1037   1.396       .  A
C1036      H1041   1.085       .  S
C1037      C1038   1.417       .  A
C1038      C1039   1.505       .  S
C1039      H1043   1.111       .  S
C1039      H1044   1.110       .  S
C1039      H1045   1.107       .  S
C1042      H1046   1.102       .  S
C1042      H1047   1.110       .  S
C1042      H1048   1.111       .  S
C1049      C1050   1.409       .  A
C1049      C1054   1.395       .  A
C1049      H1056   1.081       .  S
C1050      C1051   1.407       .  A
C1051      C1052   1.403   1_556  A
C1051      C1058   1.508       .  S
C1052      C1053   1.412       .  A
C1052      H1057   1.081       .  S
C1053      C1054   1.406   1_554  A
C1054      C1055   1.509       .  S
C1055      H1059   1.111       .  S
C1055      H1060   1.110       .  S
C1055      H1061   1.108       .  S
C1058      H1062   1.111       .  S
C1058      H1063   1.109       .  S
C1058      H1064   1.111   1_556  S
C1065      C1066   1.407       .  A
C1065      C1070   1.407       .  A
C1065      H1072   1.085       .  S
C1066      C1067   1.410       .  A
C1067      C1068   1.413       .  A
C1067      C1074   1.505       .  S
C1068      C1069   1.409       .  A
C1068      H1073   1.084       .  S
C1069      C1070   1.411       .  A
C1070      C1071   1.506       .  S
C1071      H1075   1.111       .  S
C1071      H1076   1.110       .  S
C1071      H1077   1.110       .  S
C1074      H1078   1.110       .  S
C1074      H1079   1.110       .  S
C1074      H1080   1.111       .  S
C1081      C1082   1.397       .  A
C1081      C1086   1.394       .  A
C1081      H1088   1.082       .  S
C1082      C1083   1.408       .  A
C1083      C1084   1.409       .  A
C1083      C1090   1.505       .  S
C1084      C1085   1.412       .  A
C1084      H1089   1.084       .  S
C1085      C1086   1.415       .  A
C1086      C1087   1.506       .  S
C1087      H1091   1.111       .  S
C1087      H1092   1.108       .  S
C1087      H1093   1.108       .  S
C1090      H1094   1.110       .  S
C1090      H1095   1.110       .  S
C1090      H1096   1.111       .  S
C1097      C1098   1.399       .  A
C1097      C1102   1.389       .  A
C1097      H1104   1.074       .  S
C1098      C1099   1.397       .  A
C1099      C1100   1.381       .  A
C1099      C1106   1.512   1_455  S
C1100      C1101   1.396       .  A
C1100      H1105   1.071       .  S
C1101      C1102   1.399       .  A
C1102      C1103   1.512       .  S
C1103      H1107   1.111       .  S
C1103      H1108   1.109       .  S
C1103      H1109   1.110       .  S
C1106      H1110   1.110       .  S
C1106      H1111   1.109       .  S
C1106      H1112   1.103       .  S
C1113      C1114   1.404       .  A
C1113      C1118   1.386       .  A
C1113      H1120   1.085       .  S
C1114      C1115   1.434       .  A
C1115      C1116   1.391       .  A
C1115      C1122   1.507       .  S
C1116      C1117   1.382       .  A
C1116      H1121   1.085       .  S
C1117      C1118   1.410       .  A
C1118      C1119   1.501       .  S
C1119      H1123   1.111       .  S
C1119      H1124   1.106       .  S
C1119      H1125   1.111       .  S
C1122      H1126   1.101       .  S
C1122      H1127   1.110       .  S
C1122      H1128   1.111       .  S
C1129      C1130   1.401       .  A
C1129      C1134   1.400       .  A
C1129      H1136   1.081       .  S
C1130      C1131   1.417       .  A
C1131      C1132   1.418       .  A
C1131      C1138   1.504       .  S
C1132      C1133   1.412       .  A
C1132      H1137   1.083       .  S
C1133      C1134   1.421       .  A
C1134      C1135   1.512       .  S
C1135      H1139   1.099       .  S
C1135      H1140   1.105       .  S
C1135      H1141   1.103       .  S
C1138      H1142   1.109       .  S
C1138      H1143   1.110   1_455  S
C1138      H1144   1.111       .  S
C1145      C1146   1.403       .  A
C1145      C1150   1.426       .  A
C1145      H1152   1.084       .  S
C1146      C1147   1.429       .  A
C1147      C1148   1.445       .  A
C1147      C1154   1.503       .  S
C1148      C1149   1.420       .  A
C1148      H1153   1.083       .  S
C1149      C1150   1.440       .  A
C1150      C1151   1.505       .  S
C1151      H1155   1.110       .  S
C1151      H1156   1.107       .  S
C1151      H1157   1.110   1_455  S
C1154      H1158   1.110       .  S
C1154      H1159   1.110       .  S
C1154      H1160   1.110       .  S
C1161      C1162   1.397       .  A
C1161      C1166   1.388       .  A
C1161      H1168   1.068       .  S
C1162      C1163   1.401       .  A
C1163      C1164   1.395   1_455  A
C1163      C1170   1.500       .  S
C1164      C1165   1.412       .  A
C1164      H1169   1.083       .  S
C1165      C1166   1.404   1_655  A
C1166      C1167   1.501       .  S
C1167      H1171   1.108       .  S
C1167      H1172   1.107       .  S
C1167      H1173   1.104       .  S
C1170      H1174   1.110   1_455  S
C1170      H1175   1.110       .  S
C1170      H1176   1.109   1_455  S
C1177      C1178   1.403       .  A
C1177      C1182   1.398       .  A
C1177      H1184   1.082       .  S
C1178      C1179   1.410       .  A
C1179      C1180   1.414       .  A
C1179      C1186   1.504       .  S
C1180      C1181   1.411       .  A
C1180      H1185   1.084       .  S
C1181      C1182   1.410       .  A
C1182      C1183   1.508       .  S
C1183      H1187   1.110       .  S
C1183      H1188   1.111       .  S
C1183      H1189   1.109       .  S
C1186      H1190   1.110       .  S
C1186      H1191   1.111       .  S
C1186      H1192   1.111       .  S
C1193      C1194   1.408       .  A
C1193      C1198   1.409       .  A
C1193      H1200   1.084       .  S
C1194      C1195   1.403       .  A
C1195      C1196   1.386       .  A
C1195      C1202   1.507       .  S
C1196      C1197   1.397       .  A
C1196      H1201   1.073       .  S
C1197      C1198   1.413       .  A
C1198      C1199   1.505       .  S
C1199      H1203   1.111       .  S
C1199      H1204   1.110       .  S
C1199      H1205   1.110       .  S
C1202      H1206   1.110       .  S
C1202      H1207   1.096       .  S
C1202      H1208   1.111       .  S
C1209      C1210   1.410       .  A
C1209      C1214   1.418       .  A
C1209      H1216   1.084       .  S
C1210      C1211   1.411       .  A
C1211      C1212   1.406       .  A
C1211      C1218   1.508       .  S
C1212      C1213   1.411       .  A
C1212      H1217   1.084       .  S
C1213      C1214   1.418       .  A
C1214      C1215   1.504       .  S
C1215      H1219   1.111       .  S
C1215      H1220   1.110       .  S
C1215      H1221   1.110       .  S
C1218      H1222   1.110       .  S
C1218      H1223   1.110       .  S
C1218      H1224   1.111       .  S
C1225      C1226   1.410   1_554  A
C1225      C1230   1.398       .  A
C1225      H1232   1.081       .  S
C1226      C1227   1.413       .  A
C1227      C1228   1.397       .  A
C1227      C1234   1.492       .  S
C1228      C1229   1.397       .  A
C1228      H1233   1.084       .  S
C1229      C1230   1.399   1_556  A
C1230      C1231   1.502       .  S
C1231      H1235   1.107       .  S
C1231      H1236   1.110       .  S
C1231      H1237   1.111       .  S
C1234      H1238   1.111       .  S
C1234      H1239   1.101       .  S
C1234      H1240   1.111       .  S
C1241      C1242   1.404       .  A
C1241      C1246   1.414       .  A
C1241      H1248   1.084       .  S
C1242      C1243   1.424       .  A
C1243      C1244   1.415       .  A
C1243      C1250   1.505       .  S
C1244      C1245   1.403       .  A
C1244      H1249   1.084       .  S
C1245      C1246   1.420       .  A
C1246      C1247   1.504       .  S
C1247      H1251   1.111       .  S
C1247      H1252   1.110       .  S
C1247      H1253   1.107       .  S
C1250      H1254   1.104       .  S
C1250      H1255   1.111       .  S
C1250      H1256   1.111       .  S
C1257      C1258   1.415       .  A
C1257      C1262   1.409       .  A
C1257      H1264   1.083       .  S
C1258      C1259   1.408       .  A
C1259      C1260   1.409       .  A
C1259      C1266   1.507       .  S
C1260      C1261   1.421       .  A
C1260      H1265   1.083       .  S
C1261      C1262   1.416       .  A
C1262      C1263   1.508       .  S
C1263      H1267   1.111       .  S
C1263      H1268   1.110       .  S
C1263      H1269   1.110       .  S
C1266      H1270   1.111       .  S
C1266      H1271   1.109       .  S
C1266      H1272   1.111       .  S
C1273      C1274   1.399       .  A
C1273      C1278   1.401       .  A
C1273      H1280   1.085       .  S
C1274      C1275   1.417       .  A
C1275      C1276   1.413       .  A
C1275      C1282   1.505       .  S
C1276      C1277   1.404       .  A
C1276      H1281   1.084       .  S
C1277      C1278   1.419       .  A
C1278      C1279   1.509       .  S
C1279      H1283   1.111       .  S
C1279      H1284   1.109       .  S
C1279      H1285   1.110       .  S
C1282      H1286   1.110       .  S
C1282      H1287   1.110       .  S
C1282      H1288   1.111       .  S
C1289      C1290   1.402       .  A
C1289      C1294   1.405       .  A
C1289      H1296   1.084       .  S
C1290      C1291   1.407       .  A
C1291      C1292   1.413       .  A
C1291      C1298   1.504       .  S
C1292      C1293   1.414       .  A
C1292      H1297   1.084       .  S
C1293      C1294   1.419       .  A
C1294      C1295   1.509       .  S
C1295      H1299   1.108       .  S
C1295      H1300   1.110       .  S
C1295      H1301   1.110       .  S
C1298      H1302   1.110       .  S
C1298      H1303   1.110       .  S
C1298      H1304   1.111       .  S
C1305      C1306   1.407       .  A
C1305      C1310   1.413       .  A
C1305      H1312   1.085       .  S
C1306      C1307   1.420       .  A
C1307      C1308   1.429       .  A
C1307      C1314   1.503       .  S
C1308      C1309   1.414       .  A
C1308      H1313   1.083       .  S
C1309      C1310   1.423       .  A
C1310      C1311   1.509       .  S
C1311      H1315   1.111       .  S
C1311      H1316   1.110       .  S
C1311      H1317   1.107       .  S
C1314      H1318   1.110       .  S
C1314      H1319   1.110       .  S
C1314      H1320   1.111       .  S
C1321      C1322   1.406       .  A
C1321      C1326   1.402       .  A
C1321      H1328   1.083       .  S
C1322      C1323   1.396       .  A
C1323      C1324   1.397       .  A
C1323      C1330   1.505       .  S
C1324      C1325   1.410       .  A
C1324      H1329   1.079       .  S
C1325      C1326   1.412       .  A
C1326      C1327   1.509       .  S
C1327      H1331   1.111       .  S
C1327      H1332   1.110       .  S
C1327      H1333   1.103       .  S
C1330      H1334   1.111       .  S
C1330      H1335   1.109       .  S
C1330      H1336   1.108       .  S
C1337      C1338   1.395       .  A
C1337      C1342   1.391       .  A
C1337      H1344   1.063       .  S
C1338      C1339   1.418       .  A
C1339      C1340   1.436       .  A
C1339      C1346   1.501       .  S
C1340      C1341   1.423       .  A
C1340      H1345   1.083       .  S
C1341      C1342   1.420       .  A
C1342      C1343   1.517       .  S
C1343      H1347   1.110       .  S
C1343      H1348   1.102       .  S
C1343      H1349   1.110       .  S
C1346      H1350   1.110       .  S
C1346      H1351   1.111       .  S
C1346      H1352   1.111       .  S
C1353      C1354   1.412       .  A
C1353      C1358   1.415       .  A
C1353      H1360   1.084       .  S
C1354      C1355   1.416       .  A
C1355      C1356   1.405       .  A
C1355      C1362   1.505       .  S
C1356      C1357   1.402       .  A
C1356      H1361   1.084       .  S
C1357      C1358   1.411       .  A
C1358      C1359   1.504       .  S
C1359      H1363   1.111       .  S
C1359      H1364   1.110       .  S
C1359      H1365   1.110       .  S
C1362      H1366   1.109       .  S
C1362      H1367   1.105       .  S
C1362      H1368   1.111       .  S
