geometry optimzed in LAMMPS
_audit_creation_date              2020-12-01 
_audit_creation_method            'lammps2cif' 
_symmetry_space_group_name_H-M    'P1' 
_symmetry_Int_Tables_number       1 
_symmetry_cell_setting            triclinic 
loop_ 
_symmetry_equiv_pos_as_xyz 
  x,y,z 
_cell_length_a                    58.20907462 
_cell_length_b                    58.1911747331859 
_cell_length_c                    23.855993670448676 
_cell_angle_alpha                 90.00923943585306 
_cell_angle_beta                  89.96963779067688 
_cell_angle_gamma                 89.98034720551549 
loop_ 
_atom_site_label 
_atom_site_type_symbol 
_atom_site_fract_x 
_atom_site_fract_y 
_atom_site_fract_z 
_atom_site_charge 
O1          O  0.37785023  0.02426207  0.54791485    -0.83800
O2          O  0.37421317  0.97823465  0.54613755    -0.80900
C3          C  0.37078553  0.95802074  0.53059894     0.99600
O4          O  0.36107819  0.95400702  0.48394937    -0.80900
O5          O  0.31974887  0.97913554  0.47373094    -0.83500
C6          C  0.30640443  0.99604044  0.46852157     1.04200
O7          O  0.31343713  0.01448208  0.44647100    -0.76300
O8          O  0.34093098  0.02840255  0.53281653    -0.76500
C9          C  0.35764014  0.02757009  0.56612331     1.04100
O10         O  0.40062323  0.02208318  0.43900083    -0.83800
O11         O  0.39982831  0.97426867  0.44381129    -0.80900
C12         C  0.39328606  0.96561884  0.39765293     0.99700
O13         O  0.37415011  0.97082538  0.37696487    -0.80900
O14         O  0.33368687  0.99328742  0.36037016    -0.83500
C15         C  0.34071579  0.01208494  0.33904294     1.04100
O16         O  0.34876958  0.02785911  0.36928016    -0.76300
O17         O  0.37363353  0.04762464  0.45376250    -0.76500
C18         C  0.39355175  0.04247895  0.43656855     1.04100
Cr19       Cr  0.38643405  0.99997812  0.49132957     1.93700
Cr20       Cr  0.34764376  0.97617340  0.42630236     1.93200
Cr21       Cr  0.34523370  0.02783467  0.45097394     1.39100
O22         O  0.35992634  0.00123038  0.45564859    -1.21600
O23         O  0.37776421  0.02429309  0.04826689    -0.83800
O24         O  0.37407001  0.97827328  0.04625156    -0.80900
C25         C  0.37063765  0.95807733  0.03057897     0.99600
O26         O  0.36096180  0.95411921  0.98386416    -0.80900
O27         O  0.31969693  0.97935273  0.97341719    -0.83500
C28         C  0.30639371  0.99629141  0.96820855     1.04200
O29         O  0.31348772  0.01472184  0.94621825    -0.76300
O30         O  0.34087593  0.02849851  0.03286964    -0.76500
C31         C  0.35752927  0.02758352  0.06632557     1.04100
O32         O  0.40070308  0.02217081  0.93953892    -0.83800
O33         O  0.39983074  0.97435143  0.94413715    -0.80900
C34         C  0.39334050  0.96571838  0.89791505     0.99700
O35         O  0.37423368  0.97095039  0.87708324    -0.80900
O36         O  0.33384509  0.99354937  0.86020651    -0.83500
C37         C  0.34093547  0.01235281  0.83902237     1.04100
O38         O  0.34896700  0.02809363  0.86940088    -0.76300
O39         O  0.37373990  0.04774736  0.95420499    -0.76500
C40         C  0.39366391  0.04257832  0.93708754     1.04100
Cr41       Cr  0.38640311  0.00004452  0.99165111     1.93700
Cr42       Cr  0.34765813  0.97635330  0.92619985     1.93200
Cr43       Cr  0.34530778  0.02800538  0.95106705     1.39100
O44         O  0.35995028  0.00136816  0.95573932    -1.21600
O45         O  0.51919413  0.84982940  0.28379100    -0.83800
O46         O  0.50550945  0.82227396  0.19737907    -0.80900
C47         C  0.48704778  0.81516395  0.21917648     0.99600
O48         O  0.47008395  0.82844152  0.22422509    -0.80900
O49         O  0.44479101  0.86966418  0.23430315    -0.83500
C50         C  0.44872719  0.87934449  0.28101268     1.04200
O51         O  0.46890625  0.88271306  0.29677473    -0.76300
O52         O  0.51486501  0.88672284  0.29901738    -0.76500
C53         C  0.51824140  0.86651835  0.31716918     1.04100
O54         O  0.53838262  0.88265469  0.20481471    -0.83800
O55         O  0.51885634  0.85762315  0.12024290    -0.80900
C56         C  0.50316247  0.84950500  0.08987805     0.99700
O57         O  0.48434818  0.84244032  0.11103110    -0.80900
O58         O  0.46164776  0.88286914  0.12758985    -0.83500
C59         C  0.45631499  0.90196865  0.14841504     1.04100
O60         O  0.46490918  0.90850895  0.19464867    -0.76300
O61         O  0.51275021  0.90958316  0.19027063    -0.76500
C62         C  0.53317098  0.90258277  0.18775498     1.04100
Cr63       Cr  0.51872296  0.85413537  0.20194123     1.93700
Cr64       Cr  0.46708708  0.85633738  0.17684418     1.93200
Cr65       Cr  0.49062807  0.89519569  0.24228271     1.39100
O66         O  0.49205926  0.86872533  0.20639750    -1.21600
O67         O  0.51951187  0.84992249  0.78380949    -0.83800
O68         O  0.50575949  0.82237407  0.69745190    -0.80900
C69         C  0.48733587  0.81521652  0.71935708     0.99600
O70         O  0.47036706  0.82847457  0.72466526    -0.80900
O71         O  0.44499659  0.86968648  0.73491147    -0.83500
C72         C  0.44896319  0.87940834  0.78155651     1.04200
O73         O  0.46915515  0.88277249  0.79722008    -0.76300
O74         O  0.51511283  0.88679996  0.79919178    -0.76500
C75         C  0.51853458  0.86658770  0.81725370     1.04100
O76         O  0.53855484  0.88280617  0.70478192    -0.83800
O77         O  0.51893722  0.85778466  0.62028795    -0.80900
C78         C  0.50321575  0.84963130  0.59006097     0.99700
O79         O  0.48445875  0.84250544  0.61139191    -0.80900
O80         O  0.46172359  0.88288886  0.62809789    -0.83500
C81         C  0.45642031  0.90200084  0.64889570     1.04100
O82         O  0.46504771  0.90855889  0.69508012    -0.76300
O83         O  0.51286780  0.90969861  0.69047335    -0.76500
C84         C  0.53329473  0.90273111  0.68779276     1.04100
Cr85       Cr  0.51892837  0.85426035  0.70198364     1.93700
Cr86       Cr  0.46725704  0.85637447  0.67732649     1.93200
Cr87       Cr  0.49081637  0.89527099  0.74260094     1.39100
O88         O  0.49224513  0.86880431  0.70669219    -1.21600
O89         O  0.48730949  0.13430239  0.22436877    -0.83800
O90         O  0.53332195  0.13796465  0.22615963    -0.80900
C91         C  0.55353155  0.14129863  0.24176093     0.99600
O92         O  0.55754325  0.15103271  0.28837999    -0.80900
O93         O  0.53244296  0.19239731  0.29848121    -0.83500
C94         C  0.51555312  0.20576349  0.30365513     1.04200
O95         O  0.49710558  0.19876271  0.32574837    -0.76300
O96         O  0.48314167  0.17122485  0.23954326    -0.76500
C97         C  0.48400293  0.15451739  0.20619601     1.04100
O98         O  0.48947461  0.11152630  0.33321922    -0.83800
O99         O  0.53726067  0.11232356  0.32846918    -0.80900
C100        C  0.54591423  0.11887116  0.37462071     0.99700
O101        O  0.54071999  0.13802440  0.39532871    -0.80900
O102        O  0.51828737  0.17855532  0.41190076    -0.83500
C103        C  0.49949184  0.17155856  0.43329355     1.04100
O104        O  0.48371838  0.16348100  0.40311181    -0.76300
O105        O  0.46393227  0.13853884  0.31872866    -0.76500
C106        C  0.46908488  0.11859078  0.33572723     1.04100
Cr107      Cr  0.51157633  0.12572645  0.28093962     1.93700
Cr108      Cr  0.53538239  0.16452743  0.34597492     1.93200
Cr109      Cr  0.48372973  0.16695543  0.32139397     1.39100
O110        O  0.51032121  0.15224174  0.31667855    -1.21600
O111        O  0.48737865  0.13449306  0.72401761    -0.83800
O112        O  0.53337980  0.13821850  0.72588369    -0.80900
C113        C  0.55358608  0.14152215  0.74154254     0.99600
O114        O  0.55758938  0.15113650  0.78831524    -0.80900
O115        O  0.53246549  0.19245351  0.79889484    -0.83500
C116        C  0.51555547  0.20579041  0.80411115     1.04200
O117        O  0.49711490  0.19874482  0.82615299    -0.76300
O118        O  0.48320304  0.17138129  0.73960494    -0.76500
C119        C  0.48408741  0.15474260  0.70606291     1.04100
O120        O  0.48955682  0.11148691  0.83258788    -0.83800
O121        O  0.53734805  0.11233687  0.82785098    -0.80900
C122        C  0.54597018  0.11878545  0.87412329     0.99700
O123        O  0.54074099  0.13788378  0.89507855    -0.80900
O124        O  0.51827673  0.17836374  0.91214476    -0.83500
C125        C  0.49947035  0.17132036  0.93339792     1.04100
O126        O  0.48371625  0.16329856  0.90307316    -0.76300
O127        O  0.46399126  0.13850566  0.81839597    -0.76500
C128        C  0.46916696  0.11854567  0.83528083     1.04100
Cr129      Cr  0.51164896  0.12581976  0.78048298     1.93700
Cr130      Cr  0.53540566  0.16449105  0.84606114     1.93200
Cr131      Cr  0.48376042  0.16693879  0.82140404     1.39100
O132        O  0.51036253  0.15225313  0.81656688    -1.21600
O133        O  0.66142418  0.99241448  0.98865504    -0.83800
O134        O  0.68898781  0.00613611  0.07502191    -0.80900
C135        C  0.69606850  0.02458665  0.05312892     0.99600
O136        O  0.68276742  0.04152741  0.04798406    -0.80900
O137        O  0.64150898  0.06679803  0.03818331    -0.83500
C138        C  0.63173575  0.06285558  0.99159317     1.04200
O139        O  0.62825182  0.04267066  0.97592614    -0.76300
O140        O  0.62450972  0.99667647  0.97369149    -0.76500
C141        C  0.64470527  0.99334202  0.95540031     1.04100
O142        O  0.62871551  0.97312993  0.06768317    -0.83800
O143        O  0.65369200  0.99276146  0.15220608    -0.80900
C144        C  0.66179580  0.00849310  0.18250334     0.99700
O145        O  0.66887883  0.02728620  0.16126730    -0.80900
O146        O  0.62847142  0.04994839  0.14507866    -0.83500
C147        C  0.60931627  0.05519514  0.12452839     1.04100
O148        O  0.60270724  0.04655848  0.07840177    -0.76300
O149        O  0.60180342  0.99871450  0.08277628    -0.76500
C150        C  0.60883087  0.97829816  0.08509121     1.04100
Cr151      Cr  0.65716608  0.99287325  0.07050787     1.93700
Cr152      Cr  0.65492122  0.04452571  0.09556342     1.93200
Cr153      Cr  0.61600993  0.02088136  0.03057842     1.39100
O154        O  0.64253811  0.01952567  0.06612321    -1.21600
O155        O  0.66153806  0.99264645  0.48872590    -0.83800
O156        O  0.68897909  0.00634557  0.57534131    -0.80900
C157        C  0.69608266  0.02480942  0.55355669     0.99600
O158        O  0.68279868  0.04176486  0.54846250    -0.80900
O159        O  0.64156086  0.06700901  0.53823334    -0.83500
C160        C  0.63188518  0.06307317  0.49151982     1.04200
O161        O  0.62848191  0.04288767  0.47574403    -0.76300
O162        O  0.62464625  0.99688689  0.47347552    -0.76500
C163        C  0.64486182  0.99354845  0.45534249     1.04100
O164        O  0.62869890  0.97336379  0.56749453    -0.83800
O165        O  0.65357893  0.99293400  0.65222135    -0.80900
C166        C  0.66163212  0.00864579  0.68265466     0.99700
O167        O  0.66870615  0.02747139  0.66157014    -0.80900
O168        O  0.62830646  0.05011855  0.64492775    -0.83500
C169        C  0.60921815  0.05542419  0.62409642     1.04100
O170        O  0.60270476  0.04681220  0.57786386    -0.76300
O171        O  0.60176253  0.99895991  0.58228587    -0.76500
C172        C  0.60879168  0.97854436  0.58474019     1.04100
Cr173      Cr  0.65716123  0.99308605  0.57055296     1.93700
Cr174      Cr  0.65486473  0.04472786  0.59573435     1.93200
Cr175      Cr  0.61608374  0.02111287  0.53023482     1.39100
O176        O  0.64254206  0.01973812  0.56609310    -1.21600
O177        O  0.12484900  0.02411492  0.97462958    -0.83800
O178        O  0.12877040  0.97812211  0.97653109    -0.80900
C179        C  0.13218488  0.95792308  0.99216757     0.99600
O180        O  0.14198305  0.95395188  0.03871738    -0.80900
O181        O  0.18322980  0.97926017  0.04873389    -0.83500
C182        C  0.19650073  0.99622068  0.05387494     1.04200
O183        O  0.18938041  0.01465649  0.07583394    -0.76300
O184        O  0.16174902  0.02842382  0.98959445    -0.76500
C185        C  0.14503261  0.02748328  0.95632849     1.04100
O186        O  0.10214209  0.02186282  0.08362421    -0.83800
O187        O  0.10316093  0.97406775  0.07893139    -0.80900
C188        C  0.10975208  0.96543828  0.12508001     0.99700
O189        O  0.12889697  0.97068832  0.14567870    -0.80900
O190        O  0.16926145  0.99338823  0.16213089    -0.83500
C191        C  0.16214142  0.01216340  0.18344862     1.04100
O192        O  0.15403993  0.02790873  0.15318869    -0.76300
O193        O  0.12898774  0.04753648  0.06884146    -0.76500
C194        C  0.10910258  0.04228963  0.08608680     1.04100
Cr195      Cr  0.11642506  0.99981413  0.03130099     1.93700
Cr196      Cr  0.15536170  0.97618899  0.09625177     1.93200
Cr197      Cr  0.15750608  0.02786871  0.07147430     1.39100
O198        O  0.14293841  0.00119519  0.06692659    -1.21600
O199        O  0.12495828  0.02392434  0.47457639    -0.83800
O200        O  0.12889064  0.97793032  0.47658245    -0.80900
C201        C  0.13227191  0.95773285  0.49227474     0.99600
O202        O  0.14201723  0.95376825  0.53889696    -0.80900
O203        O  0.18326361  0.97903792  0.54904033    -0.83500
C204        C  0.19654126  0.99599250  0.55413834     1.04200
O205        O  0.18942863  0.01445184  0.57599447    -0.76300
O206        O  0.16185438  0.02821221  0.48963677    -0.76500
C207        C  0.14514958  0.02730072  0.45633282     1.04100
O208        O  0.10219342  0.02170454  0.58349964    -0.83800
O209        O  0.10319689  0.97389478  0.57887636    -0.80900
C210        C  0.10975001  0.96528894  0.62508692     0.99700
O211        O  0.12886699  0.97057227  0.64577934    -0.80900
O212        O  0.16923418  0.99324318  0.66233786    -0.83500
C213        C  0.16211743  0.01203886  0.68355612     1.04100
O214        O  0.15405837  0.02777423  0.65320293    -0.76300
O215        O  0.12905692  0.04736564  0.56875017    -0.76500
C216        C  0.10916553  0.04212840  0.58597952     1.04100
Cr217      Cr  0.11650012  0.99963618  0.53126015     1.93700
Cr218      Cr  0.15536827  0.97602050  0.59644684     1.93200
Cr219      Cr  0.15756812  0.02768760  0.57150501     1.39100
O220        O  0.14298809  0.00102101  0.56698628    -1.21600
O221        O  0.98337842  0.84977363  0.24029316    -0.83800
O222        O  0.99720676  0.82221239  0.32664852    -0.80900
C223        C  0.01567044  0.81515673  0.30471651     0.99600
O224        O  0.03257045  0.82850049  0.29954060    -0.80900
O225        O  0.05772949  0.86984240  0.28949783    -0.83500
C226        C  0.05376418  0.87962497  0.24291024     1.04200
O227        O  0.03357192  0.88303515  0.22725254    -0.76300
O228        O  0.98756414  0.88670467  0.22521985    -0.76500
C229        C  0.98423187  0.86649699  0.20700359     1.04100
O230        O  0.96409821  0.88247565  0.31928928    -0.83800
O231        O  0.98377320  0.85755676  0.40382122    -0.80900
C232        C  0.99951744  0.84949338  0.43412106     0.99700
O233        O  0.01832231  0.84243417  0.41285981    -0.80900
O234        O  0.04086398  0.88288480  0.39642051    -0.83500
C235        C  0.04607611  0.90204021  0.37578720     1.04100
O236        O  0.03743291  0.90861587  0.32964819    -0.76300
O237        O  0.98963232  0.90943367  0.33420767    -0.76500
C238        C  0.96923640  0.90239036  0.33651488     1.04100
Cr239      Cr  0.98387680  0.85404458  0.32213074     1.93700
Cr240      Cr  0.03550869  0.85639252  0.34701408     1.93200
Cr241      Cr  0.01177923  0.89524989  0.28196663     1.39100
O242        O  0.01048682  0.86871885  0.31759203    -1.21600
O243        O  0.98348797  0.84961281  0.74031873    -0.83800
O244        O  0.99725874  0.82211512  0.82684428    -0.80900
C245        C  0.01574098  0.81504839  0.80503116     0.99600
O246        O  0.03265921  0.82837912  0.79997820    -0.80900
O247        O  0.05780331  0.86972796  0.78978591    -0.83500
C248        C  0.05386156  0.87945517  0.74311435     1.04200
O249        O  0.03367572  0.88282703  0.72735220    -0.76300
O250        O  0.98766383  0.88653311  0.72513619    -0.76500
C251        C  0.98434873  0.86631664  0.70697257     1.04100
O252        O  0.96415319  0.88237224  0.81916464    -0.83800
O253        O  0.98375790  0.85750068  0.90383124    -0.80900
C254        C  0.99948477  0.84948764  0.93426069     0.99700
O255        O  0.01831529  0.84242569  0.91314222    -0.80900
O256        O  0.04085043  0.88287840  0.89656048    -0.83500
C257        C  0.04607700  0.90201038  0.87581487     1.04100
O258        O  0.03747750  0.90852432  0.82958010    -0.76300
O259        O  0.98967817  0.90934587  0.83401895    -0.76500
C260        C  0.96928610  0.90228948  0.83639170     1.04100
Cr261      Cr  0.98392856  0.85393906  0.82215579     1.93700
Cr262      Cr  0.03554555  0.85632619  0.84729427     1.93200
Cr263      Cr  0.01185206  0.89511172  0.78190887     1.39100
O264        O  0.01053978  0.86861374  0.81767868    -1.21600
O265        O  0.01438611  0.13347703  0.29813541    -0.83800
O266        O  0.96841411  0.13737436  0.29594306    -0.80900
C267        C  0.94824118  0.14087495  0.28026589     0.99600
O268        O  0.94430719  0.15050446  0.23349182    -0.80900
O269        O  0.96955732  0.19169205  0.22325637    -0.83500
C270        C  0.98650845  0.20496455  0.21812421     1.04200
O271        O  0.00495276  0.19785018  0.19624326    -0.76300
O272        O  0.01862645  0.17038634  0.28288811    -0.76500
C273        C  0.01775402  0.15368966  0.31624715     1.04100
O274        O  0.01232915  0.11060421  0.18941528    -0.83800
O275        O  0.96447374  0.11160571  0.19382666    -0.80900
C276        C  0.95588619  0.11814017  0.14758900     0.99700
O277        O  0.96120764  0.13722868  0.12676057    -0.80900
O278        O  0.98385420  0.17761280  0.11013721    -0.83500
C279        C  0.00267173  0.17052061  0.08903411     1.04100
O280        O  0.01836320  0.16241422  0.11943137    -0.76300
O281        O  0.03789791  0.13754412  0.20426312    -0.76500
C282        C  0.03274585  0.11761455  0.18717048     1.04100
Cr283      Cr  0.99016883  0.12494828  0.24142619     1.93700
Cr284      Cr  0.96658890  0.16377393  0.17595931     1.93200
Cr285      Cr  0.01819835  0.16601392  0.20108475     1.39100
O286        O  0.99155731  0.15141435  0.20556846    -1.21600
O287        O  0.01458734  0.13352709  0.79843947    -0.83800
O288        O  0.96860643  0.13743847  0.79624992    -0.80900
C289        C  0.94843484  0.14089069  0.78049374     0.99600
O290        O  0.94452224  0.15056350  0.73376669    -0.80900
O291        O  0.96989241  0.19172390  0.72338447    -0.83500
C292        C  0.98686303  0.20496319  0.71804445     1.04200
O293        O  0.00526535  0.19778649  0.69607069    -0.76300
O294        O  0.01892143  0.17040473  0.78287302    -0.76500
C295        C  0.01797799  0.15376173  0.81638162     1.04100
O296        O  0.01250176  0.11051559  0.68986973    -0.83800
O297        O  0.96467323  0.11159433  0.69425007    -0.80900
C298        C  0.95606320  0.11811109  0.64802476     0.99700
O299        O  0.96135343  0.13720086  0.62713512    -0.80900
O300        O  0.98408731  0.17753017  0.61027979    -0.83500
C301        C  0.00286076  0.17035433  0.58911153     1.04100
O302        O  0.01855138  0.16222042  0.61947192    -0.76300
O303        O  0.03811174  0.13743374  0.70445159    -0.76500
C304        C  0.03292459  0.11749603  0.68748960     1.04100
Cr305      Cr  0.99036390  0.12494992  0.74180075     1.93700
Cr306      Cr  0.96682319  0.16377285  0.67620109     1.93200
Cr307      Cr  0.01845019  0.16592660  0.70110572     1.39100
O308        O  0.99178223  0.15138022  0.70578327    -1.21600
O309        O  0.84049298  0.99206868  0.53276960    -0.83800
O310        O  0.81303462  0.00599737  0.44640713    -0.80900
C311        C  0.80594357  0.02444055  0.46839156     0.99600
O312        O  0.81923167  0.04137344  0.47364299    -0.80900
O313        O  0.86044057  0.06657489  0.48408898    -0.83500
C314        C  0.87002674  0.06255150  0.53086621     1.04200
O315        O  0.87337189  0.04233387  0.54645428    -0.76300
O316        O  0.87737099  0.99633153  0.54815008    -0.76500
C317        C  0.85716242  0.99290471  0.56618430     1.04100
O318        O  0.87335836  0.97302499  0.45379053    -0.83800
O319        O  0.84846188  0.99273015  0.36927663    -0.80900
C320        C  0.84037199  0.00848916  0.33904864     0.99700
O321        O  0.83326829  0.02725936  0.36038783    -0.80900
O322        O  0.87368996  0.04976735  0.37724213    -0.83500
C323        C  0.89274794  0.05508458  0.39817906     1.04100
O324        O  0.89923377  0.04648496  0.44444489    -0.76300
O325        O  0.90029821  0.99866992  0.43958663    -0.76500
C326        C  0.89330980  0.97825139  0.43697640     1.04100
Cr327      Cr  0.84486869  0.99271015  0.45095528     1.93700
Cr328      Cr  0.84713706  0.04438373  0.42637716     1.93200
Cr329      Cr  0.88588601  0.02069347  0.49176702     1.39100
O330        O  0.85945888  0.01934860  0.45577945    -1.21600
O331        O  0.84052195  0.99214661  0.03288083    -0.83800
O332        O  0.81305694  0.00576100  0.94624719    -0.80900
C333        C  0.80594050  0.02422586  0.96805602     0.99600
O334        O  0.81920013  0.04119169  0.97307980    -0.80900
O335        O  0.86035134  0.06650752  0.98321871    -0.83500
C336        C  0.86997274  0.06259725  0.03001349     1.04200
O337        O  0.87339994  0.04242068  0.04580742    -0.76300
O338        O  0.87740090  0.99644286  0.04812494    -0.76500
C339        C  0.85719205  0.99311551  0.06627043     1.04100
O340        O  0.87341756  0.97289004  0.95421899    -0.83800
O341        O  0.84850270  0.99235095  0.86938729    -0.80900
C342        C  0.84039935  0.00802953  0.83892776     0.99700
O343        O  0.83328786  0.02685576  0.85997640    -0.80900
O344        O  0.87364472  0.04955294  0.87655683    -0.83500
C345        C  0.89270934  0.05490769  0.89741972     1.04100
O346        O  0.89921761  0.04636353  0.94372614    -0.76300
O347        O  0.90030920  0.99852718  0.93946030    -0.76500
C348        C  0.89334426  0.97809262  0.93718593     1.04100
Cr349      Cr  0.84490760  0.99254430  0.95105635     1.93700
Cr350      Cr  0.84710069  0.04416986  0.92575955     1.93200
Cr351      Cr  0.88590226  0.02066644  0.99138403     1.39100
O352        O  0.85946980  0.01921650  0.95545559    -1.21600
O353        O  0.48794961  0.38709296  0.29787575    -0.83800
O354        O  0.53395728  0.38334795  0.29562145    -0.80900
C355        C  0.55413037  0.37985788  0.27984156     0.99600
O356        O  0.55804583  0.37013802  0.23312853    -0.80900
O357        O  0.53283048  0.32887720  0.22273265    -0.83500
C358        C  0.51588566  0.31558822  0.21766176     1.04200
O359        O  0.49742559  0.32270266  0.19590468    -0.76300
O360        O  0.48375754  0.35017620  0.28264597    -0.76500
C361        C  0.48464789  0.36687210  0.31602275     1.04100
O362        O  0.49002758  0.40991074  0.18897949    -0.83800
O363        O  0.53783595  0.40904020  0.19347398    -0.80900
C364        C  0.54643996  0.40251656  0.14722877     0.99700
O365        O  0.54115572  0.38341581  0.12641247    -0.80900
O366        O  0.51851941  0.34304980  0.10963833    -0.83500
C367        C  0.49969536  0.35015724  0.08862234     1.04100
O368        O  0.48397990  0.35815672  0.11915805    -0.76300
O369        O  0.46445763  0.38299722  0.20402955    -0.76500
C370        C  0.46963028  0.40287164  0.18661629     1.04100
Cr371      Cr  0.51216251  0.39565825  0.24109555     1.93700
Cr372      Cr  0.53578071  0.35684617  0.17555074     1.93200
Cr373      Cr  0.48416964  0.35454206  0.20082573     1.39100
O374        O  0.51080791  0.36916754  0.20527685    -1.21600
O375        O  0.48769753  0.38731984  0.79741572    -0.83800
O376        O  0.53369937  0.38363578  0.79561292    -0.80900
C377        C  0.55389634  0.38008249  0.78011151     0.99600
O378        O  0.55789314  0.37024888  0.73358371    -0.80900
O379        O  0.53270057  0.32894944  0.72345946    -0.83500
C380        C  0.51578113  0.31563564  0.71825466     1.04200
O381        O  0.49734886  0.32271651  0.69629730    -0.76300
O382        O  0.48354307  0.35036867  0.78261315    -0.76500
C383        C  0.48439456  0.36713334  0.81579792     1.04100
O384        O  0.48990781  0.40990365  0.68821817    -0.83800
O385        O  0.53770459  0.40907636  0.69311650    -0.80900
C386        C  0.54639404  0.40244571  0.64705794     0.99700
O387        O  0.54119617  0.38327313  0.62650865    -0.80900
O388        O  0.51859232  0.34287186  0.61007540    -0.83500
C389        C  0.49980407  0.34992836  0.58877815     1.04100
O390        O  0.48403557  0.35800571  0.61903182    -0.76300
O391        O  0.46433914  0.38300776  0.70342579    -0.76500
C392        C  0.46951164  0.40286337  0.68589023     1.04100
Cr393      Cr  0.51197984  0.39578442  0.74071019     1.93700
Cr394      Cr  0.53573288  0.35682155  0.67596335     1.93200
Cr395      Cr  0.48407933  0.35456182  0.70073565     1.39100
O396        O  0.51070369  0.36920743  0.70525580    -1.21600
O397        O  0.66236264  0.52838034  0.53300066    -0.83800
O398        O  0.69001449  0.51453164  0.44677299    -0.80900
C399        C  0.69704061  0.49605377  0.46865807     0.99600
O400        O  0.68370630  0.47914465  0.47370940    -0.80900
O401        O  0.64240836  0.45400761  0.48377334    -0.83500
C402        C  0.63262097  0.45801689  0.53034671     1.04200
O403        O  0.62921724  0.47822644  0.54595419    -0.76300
O404        O  0.62543005  0.52423316  0.54784273    -0.76500
C405        C  0.64560778  0.52753424  0.56620873     1.04100
O406        O  0.62974304  0.54760485  0.45371481    -0.83800
O407        O  0.65478947  0.52793299  0.36939443    -0.80900
C408        C  0.66283034  0.51216221  0.33908974     0.99700
O409        O  0.66984577  0.49334152  0.36033739    -0.80900
O410        O  0.62940064  0.47077231  0.37679107    -0.83500
C411        C  0.61025687  0.46553730  0.39745190     1.04100
O412        O  0.60366613  0.47420801  0.44357500    -0.76300
O413        O  0.60282396  0.52202699  0.43875800    -0.76500
C414        C  0.60987215  0.54242564  0.43631918     1.04100
Cr415      Cr  0.65818942  0.52785197  0.45110870     1.93700
Cr416      Cr  0.65586336  0.47618539  0.42620573     1.93200
Cr417      Cr  0.61697817  0.49994300  0.49115410     1.39100
O418        O  0.64352098  0.50123085  0.45557325    -1.21600
O419        O  0.66254873  0.52836197  0.03301879    -0.83800
O420        O  0.69004864  0.51450264  0.94654182    -0.80900
C421        C  0.69706453  0.49600660  0.96835852     0.99600
O422        O  0.68371509  0.47910606  0.97337288    -0.80900
O423        O  0.64237982  0.45404273  0.98368750    -0.83500
C424        C  0.63267690  0.45803876  0.03037466     1.04200
O425        O  0.62934938  0.47824605  0.04610437    -0.76300
O426        O  0.62563263  0.52426726  0.04817509    -0.76500
C427        C  0.64584157  0.52752841  0.06636790     1.04100
O428        O  0.62984402  0.54768602  0.95405604    -0.83800
O429        O  0.65473637  0.52802051  0.86946971    -0.80900
C430        C  0.66268595  0.51224785  0.83902853     0.99700
O431        O  0.66971167  0.49340819  0.86015875    -0.80900
O432        O  0.62924155  0.47092004  0.87689915    -0.83500
C433        C  0.61012369  0.46570215  0.89773028     1.04100
O434        O  0.60362786  0.47434261  0.94396304    -0.76300
O435        O  0.60285997  0.52215574  0.93930730    -0.76500
C436        C  0.60994256  0.54254109  0.93680003     1.04100
Cr437      Cr  0.65825537  0.52788386  0.95116315     1.93700
Cr438      Cr  0.65579458  0.47623631  0.92609055     1.93200
Cr439      Cr  0.61705811  0.50002136  0.99150092     1.39100
O440        O  0.64354667  0.50128582  0.95567325    -1.21600
O441        O  0.37796744  0.49647230  0.97271230    -0.83800
O442        O  0.37411267  0.54248032  0.97465642    -0.80900
C443        C  0.37076304  0.56268443  0.99037231     0.99600
O444        O  0.36106897  0.56666993  0.03706230    -0.80900
O445        O  0.31981904  0.54144311  0.04751441    -0.83500
C446        C  0.30653105  0.52450376  0.05277928     1.04200
O447        O  0.31363856  0.50607041  0.07473229    -0.76300
O448        O  0.34108356  0.49224333  0.98814381    -0.76500
C449        C  0.35774790  0.49313813  0.95467768     1.04100
O450        O  0.40086624  0.49869433  0.08136959    -0.83800
O451        O  0.39992154  0.54649199  0.07669834    -0.80900
C452        C  0.39342709  0.55512292  0.12294660     0.99700
O453        O  0.37431395  0.54990036  0.14380585    -0.80900
O454        O  0.33392093  0.52729717  0.16073312    -0.83500
C455        C  0.34102964  0.50851086  0.18196312     1.04100
O456        O  0.34907942  0.49275423  0.15162539    -0.76300
O457        O  0.37393375  0.47308200  0.06691867    -0.76500
C458        C  0.39385039  0.47828790  0.08394260     1.04100
Cr459      Cr  0.38653119  0.52076749  0.02924579     1.93700
Cr460      Cr  0.34775420  0.54446256  0.09471907     1.93200
Cr461      Cr  0.34547025  0.49279564  0.06995654     1.39100
O462        O  0.36008221  0.51943594  0.06522800    -1.21600
O463        O  0.37800230  0.49670462  0.47306827    -0.83800
O464        O  0.37416731  0.54270483  0.47507366    -0.80900
C465        C  0.37086019  0.56291647  0.49076827     0.99600
O466        O  0.36123004  0.56693441  0.53752777    -0.80900
O467        O  0.31989262  0.54189816  0.54777366    -0.83500
C468        C  0.30654907  0.52499308  0.55279367     1.04200
O469        O  0.31356946  0.50649380  0.57458076    -0.76300
O470        O  0.34108271  0.49261887  0.48815251    -0.76500
C471        C  0.35780559  0.49342049  0.45484778     1.04100
O472        O  0.40077113  0.49886110  0.58182557    -0.83800
O473        O  0.39993861  0.54667866  0.57720374    -0.80900
C474        C  0.39344887  0.55525744  0.62351243     0.99700
O475        O  0.37434146  0.55000373  0.64433054    -0.80900
O476        O  0.33383704  0.52758412  0.66096537    -0.83500
C477        C  0.34081984  0.50873244  0.68210017     1.04100
O478        O  0.34883731  0.49297899  0.65170727    -0.76300
O479        O  0.37377587  0.47332403  0.56715966    -0.76500
C480        C  0.39370244  0.47846809  0.58424854     1.04100
Cr481      Cr  0.38653258  0.52097818  0.52967781     1.93700
Cr482      Cr  0.34779938  0.54474495  0.59509648     1.93200
Cr483      Cr  0.34535425  0.49310781  0.57001413     1.39100
O484        O  0.36005340  0.51969847  0.56552651    -1.21600
O485        O  0.51979748  0.67059128  0.23859652    -0.83800
O486        O  0.50591489  0.69808039  0.32512049    -0.80900
C487        C  0.48743500  0.70512937  0.30332197     0.99600
O488        O  0.47056165  0.69176623  0.29805113    -0.80900
O489        O  0.44549884  0.65042810  0.28771306    -0.83500
C490        C  0.44950198  0.64072734  0.24102956     1.04200
O491        O  0.46970386  0.63730162  0.22539847    -0.76300
O492        O  0.51571931  0.63365248  0.22345314    -0.76500
C493        C  0.51900835  0.65386875  0.20528326     1.04100
O494        O  0.53910302  0.63788203  0.31742077    -0.83800
O495        O  0.51937614  0.66271172  0.40210507    -0.80900
C496        C  0.50359467  0.67070308  0.43245489     0.99700
O497        O  0.48479583  0.67776123  0.41123597    -0.80900
O498        O  0.46235936  0.63729682  0.39456856    -0.83500
C499        C  0.45713788  0.61817462  0.37379245     1.04100
O500        O  0.46578907  0.61164249  0.32760795    -0.76300
O501        O  0.51360797  0.61087417  0.33229092    -0.76500
C502        C  0.53399272  0.61795582  0.33460110     1.04100
Cr503      Cr  0.51929137  0.66627905  0.32042023     1.93700
Cr504      Cr  0.46766416  0.66383562  0.34533132     1.93200
Cr505      Cr  0.49147014  0.62506056  0.28008193     1.39100
O506        O  0.49270984  0.65157095  0.31582726    -1.21600
O507        O  0.51968918  0.67054698  0.73860420    -0.83800
O508        O  0.50606649  0.69808072  0.82527918    -0.80900
C509        C  0.48759604  0.70516082  0.80351398     0.99600
O510        O  0.47067596  0.69184263  0.79844986    -0.80900
O511        O  0.44547201  0.65057638  0.78844180    -0.83500
C512        C  0.44939358  0.64082574  0.74178120     1.04200
O513        O  0.46956362  0.63731298  0.72602909    -0.76300
O514        O  0.51554784  0.63360833  0.72363094    -0.76500
C515        C  0.51878222  0.65381594  0.70533308     1.04100
O516        O  0.53910392  0.63781957  0.81728154    -0.83800
O517        O  0.51956984  0.66270602  0.90211847    -0.80900
C518        C  0.50385602  0.67074481  0.93260177     0.99700
O519        O  0.48502710  0.67782567  0.91157742    -0.80900
O520        O  0.46238714  0.63742956  0.89519450    -0.83500
C521        C  0.45712863  0.61829828  0.87449984     1.04100
O522        O  0.46575776  0.61172075  0.82832989    -0.76300
O523        O  0.51359222  0.61087786  0.83262152    -0.76500
C524        C  0.53399207  0.61793138  0.83471218     1.04100
Cr525      Cr  0.51934826  0.66625125  0.82044936     1.93700
Cr526      Cr  0.46774928  0.66393852  0.84585097     1.93200
Cr527      Cr  0.49138966  0.62506859  0.78054712     1.39100
O528        O  0.49272672  0.65159300  0.81619192    -1.21600
O529        O  0.01537050  0.38635423  0.22425640    -0.83800
O530        O  0.96938947  0.38272914  0.22650828    -0.80900
C531        C  0.94920017  0.37928804  0.24216942     0.99600
O532        O  0.94521694  0.36952007  0.28875444    -0.80900
O533        O  0.97029888  0.32819337  0.29847937    -0.83500
C534        C  0.98717148  0.31480873  0.30349326     1.04200
O535        O  0.00566452  0.32179111  0.32532528    -0.76300
O536        O  0.01944289  0.34939533  0.23899674    -0.76500
C537        C  0.01857445  0.36615746  0.20582550     1.04100
O538        O  0.01340734  0.40899114  0.33337745    -0.83800
O539        O  0.96555426  0.40825604  0.32897278    -0.80900
C540        C  0.95687670  0.40165013  0.37506332     0.99700
O541        O  0.96209076  0.38248478  0.39564360    -0.80900
O542        O  0.98461644  0.34199118  0.41178329    -0.83500
C543        C  0.00343138  0.34901619  0.43297039     1.04100
O544        O  0.01920272  0.35700964  0.40260764    -0.76300
O545        O  0.03888045  0.38198143  0.31811194    -0.76500
C546        C  0.03379800  0.40189247  0.33552888     1.04100
Cr547      Cr  0.99119695  0.39489049  0.28116636     1.93700
Cr548      Cr  0.96742396  0.35602508  0.34611045     1.93200
Cr549      Cr  0.01904377  0.35358621  0.32088997     1.39100
O550        O  0.99245828  0.36833027  0.31664893    -1.21600
O551        O  0.01532824  0.38641856  0.72400159    -0.83800
O552        O  0.96935182  0.38260703  0.72611002    -0.80900
C553        C  0.94916688  0.37913261  0.74176745     0.99600
O554        O  0.94520088  0.36938133  0.78837990    -0.80900
O555        O  0.97043964  0.32815188  0.79838905    -0.83500
C556        C  0.98737257  0.31484379  0.80345076     1.04200
O557        O  0.00581521  0.32190983  0.82537589    -0.76300
O558        O  0.01953671  0.34949212  0.73897968    -0.76500
C559        C  0.01861667  0.36621584  0.70570522     1.04100
O560        O  0.01319922  0.40914865  0.83298928    -0.83800
O561        O  0.96537474  0.40823261  0.82839711    -0.80900
C562        C  0.95671099  0.40165039  0.87451886     0.99700
O563        O  0.96196567  0.38251585  0.89521892    -0.80900
O564        O  0.98463215  0.34211299  0.91168437    -0.83500
C565        C  0.00341235  0.34921591  0.93290145     1.04100
O566        O  0.01916637  0.35725110  0.90255154    -0.76300
O567        O  0.03878333  0.38221923  0.81799211    -0.76500
C568        C  0.03360621  0.40211145  0.83535033     1.04100
Cr569      Cr  0.99108507  0.39491325  0.78076214     1.93700
Cr570      Cr  0.96742700  0.35602045  0.84586770     1.93200
Cr571      Cr  0.01906753  0.35375456  0.82084329     1.39100
O572        O  0.99242877  0.36839311  0.81641716    -1.21600
O573        O  0.84123096  0.52806939  0.99010822    -0.83800
O574        O  0.81382035  0.51416786  0.07663640    -0.80900
C575        C  0.80677424  0.49571711  0.05465751     0.99600
O576        O  0.82009816  0.47879434  0.04948419    -0.80900
O577        O  0.86138044  0.45367795  0.03896703    -0.83500
C578        C  0.87098844  0.45766475  0.99217084     1.04200
O579        O  0.87440384  0.47786784  0.97653493    -0.76300
O580        O  0.87812479  0.52389485  0.97464952    -0.76500
C581        C  0.85789760  0.52722503  0.95664180     1.04100
O582        O  0.87403196  0.54727632  0.06890636    -0.83800
O583        O  0.84921525  0.52757006  0.15357715    -0.80900
C584        C  0.84117133  0.51182005  0.18390773     0.99700
O585        O  0.83413885  0.49300693  0.16268440    -0.80900
O586        O  0.87460572  0.47055526  0.14575502    -0.83500
C587        C  0.89370376  0.46530878  0.12486156     1.04100
O588        O  0.90017926  0.47390493  0.07857719    -0.76300
O589        O  0.90102766  0.52171252  0.08332960    -0.76500
C590        C  0.89396428  0.54210880  0.08591623     1.04100
Cr591      Cr  0.84561501  0.52751385  0.07190873     1.93700
Cr592      Cr  0.84803355  0.47586648  0.09667602     1.93200
Cr593      Cr  0.88674437  0.49961271  0.03116912     1.39100
O594        O  0.86028765  0.50090276  0.06714116    -1.21600
O595        O  0.84124266  0.52797661  0.49008925    -0.83800
O596        O  0.81381030  0.51412903  0.57662709    -0.80900
C597        C  0.80676721  0.49566003  0.55473916     0.99600
O598        O  0.82008781  0.47872862  0.54966415    -0.80900
O599        O  0.86138795  0.45360727  0.53929215    -0.83500
C600        C  0.87100226  0.45756957  0.49248692     1.04200
O601        O  0.87437215  0.47776691  0.47675410    -0.76300
O602        O  0.87813951  0.52379207  0.47471515    -0.76500
C603        C  0.85792041  0.52711871  0.45665795     1.04100
O604        O  0.87402452  0.54721696  0.56888892    -0.83800
O605        O  0.84916880  0.52758364  0.65358288    -0.80900
C606        C  0.84111201  0.51185691  0.68396474     0.99700
O607        O  0.83409773  0.49302340  0.66281231    -0.80900
O608        O  0.87458415  0.47057148  0.64602823    -0.83500
C609        C  0.89366635  0.46527612  0.62511962     1.04100
O610        O  0.90014584  0.47384315  0.57880764    -0.76300
O611        O  0.90101164  0.52164932  0.58340931    -0.76500
C612        C  0.89395032  0.54204693  0.58593747     1.04100
Cr613      Cr  0.84560128  0.52746999  0.57190513     1.93700
Cr614      Cr  0.84801592  0.47583790  0.59689700     1.93200
Cr615      Cr  0.88672949  0.49953313  0.53131325     1.39100
O616        O  0.86027127  0.50085466  0.56726802    -1.21600
O617        O  0.12517736  0.49607190  0.54822126    -0.83800
O618        O  0.12881424  0.54209411  0.54608433    -0.80900
C619        C  0.13212094  0.56230457  0.53039043     0.99600
O620        O  0.14179942  0.56631432  0.48369038    -0.80900
O621        O  0.18320615  0.54134971  0.47355002    -0.83500
C622        C  0.19661721  0.52449324  0.46846237     1.04200
O623        O  0.18964228  0.50594265  0.44684207    -0.76300
O624        O  0.16211288  0.49201155  0.53317614    -0.76500
C625        C  0.14537838  0.49277458  0.56645047     1.04100
O626        O  0.10244365  0.49808418  0.43930627    -0.83800
O627        O  0.10314356  0.54595913  0.44383704    -0.80900
C628        C  0.10967022  0.55460478  0.39763620     0.99700
O629        O  0.12878663  0.54934451  0.37685268    -0.80900
O630        O  0.16935659  0.52697141  0.36040920    -0.83500
C631        C  0.16243674  0.50810123  0.33927358     1.04100
O632        O  0.15443889  0.49234013  0.36963832    -0.76300
O633        O  0.12950773  0.47262105  0.45408674    -0.76500
C634        C  0.10957072  0.47770103  0.43690928     1.04100
Cr635      Cr  0.11658878  0.52028855  0.49146593     1.93700
Cr636      Cr  0.15531039  0.54412636  0.42618830     1.93200
Cr637      Cr  0.15787894  0.49249011  0.45132189     1.39100
O638        O  0.14310460  0.51905891  0.45575038    -1.21600
O639        O  0.12520822  0.49610474  0.04875535    -0.83800
O640        O  0.12899714  0.54213556  0.04638668    -0.80900
C641        C  0.13227814  0.56232264  0.03046459     0.99600
O642        O  0.14191768  0.56624822  0.98367823    -0.80900
O643        O  0.18323597  0.54112348  0.97327075    -0.83500
C644        C  0.19657030  0.52419997  0.96823160     1.04200
O645        O  0.18950665  0.50568026  0.94662774    -0.76300
O646        O  0.16209582  0.49190768  0.03327633    -0.76500
C647        C  0.14543522  0.49277123  0.06674914     1.04100
O648        O  0.10226724  0.49812526  0.94013974    -0.83800
O649        O  0.10312464  0.54596786  0.94447397    -0.80900
C650        C  0.10957542  0.55456305  0.89816370     0.99700
O651        O  0.12863715  0.54924286  0.87714405    -0.80900
O652        O  0.16912651  0.52671685  0.86029646    -0.83500
C653        C  0.16212136  0.50785120  0.83929667     1.04100
O654        O  0.15411786  0.49214040  0.86981109    -0.76300
O655        O  0.12927913  0.47257868  0.95463457    -0.76500
C656        C  0.10933861  0.47772717  0.93762026     1.04100
Cr657      Cr  0.11658782  0.52030949  0.99203749     1.93700
Cr658      Cr  0.15525759  0.54396638  0.92616985     1.93200
Cr659      Cr  0.15770658  0.49234182  0.95147768     1.39100
O660        O  0.14302519  0.51896304  0.95598072    -1.21600
O661        O  0.98371191  0.67063129  0.28347632    -0.83800
O662        O  0.99747034  0.69821203  0.19708058    -0.80900
C663        C  0.01592682  0.70525797  0.21898389     0.99600
O664        O  0.03285155  0.69192342  0.22399128    -0.80900
O665        O  0.05802713  0.65056146  0.23392488    -0.83500
C666        C  0.05406085  0.64078479  0.28052978     1.04200
O667        O  0.03386925  0.63739323  0.29623402    -0.76300
O668        O  0.98787945  0.63369534  0.29839283    -0.76500
C669        C  0.98461733  0.65389668  0.31672742     1.04100
O670        O  0.96440457  0.63794846  0.20442925    -0.83800
O671        O  0.98403229  0.66291432  0.11987939    -0.80900
C672        C  0.99977527  0.67095337  0.08950468     0.99700
O673        O  0.01858852  0.67799670  0.11068725    -0.80900
O674        O  0.04114858  0.63753976  0.12703356    -0.83500
C675        C  0.04633825  0.61836432  0.14759833     1.04100
O676        O  0.03773729  0.61180351  0.19380829    -0.76300
O677        O  0.98995840  0.61099680  0.18937760    -0.76500
C678        C  0.96955871  0.61804208  0.18712486     1.04100
Cr679      Cr  0.98416285  0.66638660  0.20159395     1.93700
Cr680      Cr  0.03579335  0.66403042  0.17647851     1.93200
Cr681      Cr  0.01209264  0.62516986  0.24157717     1.39100
O682        O  0.01078043  0.65170488  0.20597225    -1.21600
O683        O  0.98349733  0.67063715  0.78339529    -0.83800
O684        O  0.99743888  0.69810816  0.69697355    -0.80900
C685        C  0.01584377  0.70516707  0.71911373     0.99600
O686        O  0.03274777  0.69182859  0.72443968    -0.80900
O687        O  0.05789635  0.65048308  0.73488717    -0.83500
C688        C  0.05384759  0.64074651  0.78149427     1.04200
O689        O  0.03362954  0.63736081  0.79700279    -0.76300
O690        O  0.98763287  0.63371796  0.79864725    -0.76500
C691        C  0.98434839  0.65394681  0.81678628     1.04100
O692        O  0.96434031  0.63786790  0.70439555    -0.83800
O693        O  0.98415231  0.66270355  0.61987522    -0.80900
C694        C  0.99995472  0.67071766  0.58964662     0.99700
O695        O  0.01871785  0.67779470  0.61102668    -0.80900
O696        O  0.04122626  0.63736072  0.62789532    -0.83500
C697        C  0.04634800  0.61818951  0.64857774     1.04100
O698        O  0.03767098  0.61167183  0.69474269    -0.76300
O699        O  0.98990852  0.61089028  0.68979719    -0.76500
C700        C  0.96951823  0.61794316  0.68727604     1.04100
Cr701      Cr  0.98411221  0.66628878  0.70156226     1.93700
Cr702      Cr  0.03578390  0.66389564  0.67711501     1.93200
Cr703      Cr  0.01194779  0.62510421  0.74216330     1.39100
O704        O  0.01071439  0.65160366  0.70638059    -1.21600
C705        C  0.98351126  0.65835175  0.87599354    -0.17000
C706        C  0.98626503  0.66321211  0.92471293     0.07100
C707        C  0.99153982  0.66858931  0.98109310     0.08900
C708        C  0.99608228  0.67141050  0.02997317    -0.17800
C709        C  0.98384821  0.65821410  0.37598048    -0.17000
C710        C  0.98662492  0.66300053  0.42473726     0.07100
C711        C  0.99188526  0.66831970  0.48115875     0.08900
C712        C  0.99637487  0.67113293  0.53007201    -0.17800
C713        C  0.07137409  0.62818475  0.81077893    -0.17000
C714        C  0.08115781  0.61209106  0.83220342     0.07100
C715        C  0.08943633  0.59101761  0.85433499     0.08900
C716        C  0.09696145  0.57324122  0.87320019    -0.17800
C717        C  0.06484342  0.60567478  0.12212317    -0.17000
C718        C  0.08252178  0.59807558  0.10290505     0.07100
C719        C  0.10354152  0.58973243  0.08065575     0.08900
C720        C  0.11964517  0.57990250  0.05939552    -0.17800
C721        C  0.07163076  0.62819882  0.30961590    -0.17000
C722        C  0.08139294  0.61209728  0.33108043     0.07100
C723        C  0.08960750  0.59103125  0.35342578     0.08900
C724        C  0.09707608  0.57326697  0.37251265    -0.17800
C725        C  0.14969597  0.49175580  0.62566488    -0.17000
C726        C  0.15450065  0.49435331  0.67445681     0.07100
C727        C  0.15981869  0.49952348  0.73091611     0.08900
C728        C  0.16259428  0.50406553  0.77980612    -0.17800
C729        C  0.14987456  0.49185170  0.12589875    -0.17000
C730        C  0.15477546  0.49454369  0.17459092     0.07100
C731        C  0.16017725  0.49980159  0.23093391     0.08900
C732        C  0.16297271  0.50436861  0.27979001    -0.17800
C733        C  0.06483845  0.60544550  0.62321727    -0.17000
C734        C  0.08249459  0.59786299  0.60384819     0.07100
C735        C  0.10347570  0.58959344  0.58123759     0.08900
C736        C  0.11954041  0.57983470  0.55961831    -0.17800
C737        C  0.90891822  0.55963692  0.60708363    -0.17000
C738        C  0.92195309  0.57383896  0.62560242     0.07100
C739        C  0.93782938  0.58983263  0.64759621     0.08900
C740        C  0.95195584  0.60295006  0.66610800    -0.17800
C741        C  0.90893459  0.55970163  0.10708125    -0.17000
C742        C  0.92196272  0.57391608  0.12559741     0.07100
C743        C  0.93783210  0.58992993  0.14757173     0.08900
C744        C  0.95196410  0.60305680  0.16604308    -0.17800
C745        C  0.84057322  0.51559930  0.74346433    -0.17000
C746        C  0.84330926  0.52017077  0.79234831     0.07100
C747        C  0.84862142  0.52543913  0.84875036     0.08900
C748        C  0.85346918  0.52814350  0.89747763    -0.17800
C749        C  0.84066058  0.51551572  0.24342472    -0.17000
C750        C  0.84340184  0.52006031  0.29232140     0.07100
C751        C  0.84869556  0.52531530  0.34874028     0.08900
C752        C  0.85351718  0.52802157  0.39748183    -0.17800
C753        C  0.05119275  0.41706079  0.85669990    -0.17000
C754        C  0.06537106  0.43008086  0.87545014     0.07100
C755        C  0.08130968  0.44596759  0.89774137     0.08900
C756        C  0.09437135  0.46012149  0.91643253    -0.17800
C757        C  0.93807133  0.41425016  0.89967909    -0.17000
C758        C  0.92034214  0.42180992  0.91871212     0.07100
C759        C  0.89935000  0.43017462  0.94105896     0.08900
C760        C  0.88336571  0.44005888  0.96269286    -0.17800
C761        C  0.93157425  0.39163500  0.71267286    -0.17000
C762        C  0.92182103  0.40775246  0.69134105     0.07100
C763        C  0.91368019  0.42885734  0.66920661     0.08900
C764        C  0.90625653  0.44664091  0.65022063    -0.17800
C765        C  0.05146987  0.41680898  0.35665149    -0.17000
C766        C  0.06568011  0.42985673  0.37517557     0.07100
C767        C  0.08161993  0.44581187  0.39722215     0.08900
C768        C  0.09465763  0.46002891  0.41576248    -0.17800
C769        C  0.93824734  0.41425013  0.40028833    -0.17000
C770        C  0.92050854  0.42178771  0.41933526     0.07100
C771        C  0.89948920  0.43011697  0.44163384     0.08900
C772        C  0.88346091  0.43997137  0.46316833    -0.17800
C773        C  0.01941207  0.36187145  0.64647737    -0.17000
C774        C  0.01669110  0.35699080  0.59776625     0.07100
C775        C  0.01151498  0.35153006  0.54139491     0.08900
C776        C  0.00706603  0.34862664  0.49250384    -0.17800
C777        C  0.00703501  0.34883821  0.99244746    -0.17000
C778        C  0.01146748  0.35170008  0.04136643     0.07100
C779        C  0.01662879  0.35707318  0.09780175     0.08900
C780        C  0.01934973  0.36187636  0.14656246    -0.17800
C781        C  0.90633914  0.44671675  0.15001601    -0.17000
C782        C  0.91377782  0.42896934  0.16916599     0.07100
C783        C  0.92190400  0.40790124  0.19153781     0.08900
C784        C  0.93162871  0.39180183  0.21302812    -0.17800
C785        C  0.51955679  0.65814039  0.64610381    -0.17000
C786        C  0.51683180  0.66293645  0.59735331     0.07100
C787        C  0.51165771  0.66827035  0.54091272     0.08900
C788        C  0.50721520  0.67109706  0.49199634    -0.17800
C789        C  0.51996516  0.65821133  0.14610031    -0.17000
C790        C  0.51731094  0.66301884  0.09734706     0.07100
C791        C  0.51211358  0.66835775  0.04094378     0.08900
C792        C  0.50759248  0.67117279  0.99207885    -0.17800
C793        C  0.22019006  0.52635148  0.48629487    -0.17000
C794        C  0.23999757  0.52707015  0.50142926     0.07100
C795        C  0.26321664  0.52721542  0.51932520     0.08900
C796        C  0.28300705  0.52671095  0.53464220    -0.17800
C797        C  0.43174825  0.62844256  0.71254040    -0.17000
C798        C  0.42190975  0.61245659  0.69083709     0.07100
C799        C  0.41362648  0.59149482  0.66816602     0.08900
C800        C  0.40609908  0.57381569  0.64881864    -0.17800
C801        C  0.38346162  0.58041934  0.46157352    -0.17000
C802        C  0.39961100  0.59008425  0.44013924     0.07100
C803        C  0.42072280  0.59816976  0.41792168     0.08900
C804        C  0.43850587  0.60558035  0.39890474    -0.17800
C805        C  0.28296195  0.52611404  0.03471200    -0.17000
C806        C  0.26316554  0.52660612  0.01939823     0.07100
C807        C  0.23994937  0.52653745  0.00141580     0.08900
C808        C  0.22014808  0.52592997  0.98616484    -0.17800
C809        C  0.43192303  0.62828766  0.21167035    -0.17000
C810        C  0.42207444  0.61229894  0.18999469     0.07100
C811        C  0.41371362  0.59134696  0.16742141     0.08900
C812        C  0.40611413  0.57367856  0.14817398    -0.17800
C813        C  0.34031439  0.50500063  0.74160612    -0.17000
C814        C  0.34310075  0.50040425  0.79045809     0.07100
C815        C  0.34845866  0.49507295  0.84680390     0.08900
C816        C  0.35332113  0.49229806  0.89549954    -0.17800
C817        C  0.34060805  0.50486131  0.24150073    -0.17000
C818        C  0.34340695  0.50037395  0.29040625     0.07100
C819        C  0.34871037  0.49517798  0.34685443     0.08900
C820        C  0.35348594  0.49250253  0.39563169    -0.17800
C821        C  0.43848346  0.60572554  0.89965916    -0.17000
C822        C  0.42069259  0.59823943  0.91847800     0.07100
C823        C  0.39956453  0.59000509  0.94030827     0.08900
C824        C  0.38339959  0.58023064  0.96139207    -0.17800
C825        C  0.72059593  0.49427848  0.98663170    -0.17000
C826        C  0.74034461  0.49365615  0.00226340     0.07100
C827        C  0.76349380  0.49357531  0.02071969     0.08900
C828        C  0.78324263  0.49407743  0.03636761    -0.17800
C829        C  0.59501416  0.56013082  0.91541206    -0.17000
C830        C  0.58192265  0.57423720  0.89665238     0.07100
C831        C  0.56590303  0.59004901  0.87442555     0.08900
C832        C  0.55164566  0.60301432  0.85582705    -0.17800
C833        C  0.72057279  0.49434174  0.48691165    -0.17000
C834        C  0.74032729  0.49369053  0.50247688     0.07100
C835        C  0.76348472  0.49355214  0.52084928     0.08900
C836        C  0.78323853  0.49401724  0.53645141    -0.17800
C837        C  0.59493485  0.55999893  0.41490798    -0.17000
C838        C  0.58185771  0.57413093  0.39621649     0.07100
C839        C  0.56586901  0.59000012  0.37412387     0.08900
C840        C  0.55163525  0.60301463  0.35563866    -0.17800
C841        C  0.64988936  0.52841414  0.62547309    -0.17000
C842        C  0.65472144  0.52570694  0.67422459     0.07100
C843        C  0.66014266  0.52046758  0.73061148     0.08900
C844        C  0.66304163  0.51593556  0.77947542    -0.17800
C845        C  0.65020612  0.52837884  0.12558831    -0.17000
C846        C  0.65506662  0.52564364  0.17430687     0.07100
C847        C  0.66046909  0.52037520  0.23067615     0.08900
C848        C  0.66330487  0.51583324  0.27954872    -0.17800
C849        C  0.45193027  0.41777977  0.66445918    -0.17000
C850        C  0.43773725  0.43079245  0.64578920     0.07100
C851        C  0.42176699  0.44668687  0.62374235     0.08900
C852        C  0.40867714  0.46085529  0.60528187    -0.17800
C853        C  0.56500515  0.41503512  0.62178991    -0.17000
C854        C  0.58275935  0.42251764  0.60275067     0.07100
C855        C  0.60384961  0.43072716  0.58063741     0.08900
C856        C  0.61999356  0.44047626  0.55937988    -0.17800
C857        C  0.57151274  0.39249252  0.80943276    -0.17000
C858        C  0.58140968  0.40847616  0.83101266     0.07100
C859        C  0.58982363  0.42944014  0.85342769     0.08900
C860        C  0.59744376  0.44712547  0.87254952    -0.17800
C861        C  0.40885634  0.46073743  0.10516861    -0.17000
C862        C  0.42194123  0.44662114  0.12389316     0.07100
C863        C  0.43788494  0.43077717  0.14627753     0.08900
C864        C  0.45205602  0.41778965  0.16515329    -0.17800
C865        C  0.56506651  0.41511278  0.12203772    -0.17000
C866        C  0.58282432  0.42258157  0.10297856     0.07100
C867        C  0.60390861  0.43077093  0.08077296     0.08900
C868        C  0.62004565  0.44050530  0.05943659    -0.17800
C869        C  0.59764857  0.44692166  0.37220787    -0.17000
C870        C  0.59007705  0.42922046  0.35304593     0.07100
C871        C  0.58168913  0.40824695  0.33060945     0.08900
C872        C  0.57178507  0.39226024  0.30905475    -0.17800
C873        C  0.48350289  0.36285838  0.87505766    -0.17000
C874        C  0.48619427  0.35805448  0.92382687     0.07100
C875        C  0.49141835  0.35267956  0.98023796     0.08900
C876        C  0.49595735  0.34980923  0.02910023    -0.17800
C877        C  0.49617036  0.34944004  0.52924516    -0.17000
C878        C  0.49168285  0.35224781  0.48034524     0.07100
C879        C  0.48647978  0.35762420  0.42394346     0.08900
C880        C  0.48378427  0.36248339  0.37521869    -0.17800
C881        C  0.85276250  0.99186791  0.62534055    -0.17000
C882        C  0.84795355  0.99449144  0.67412365     0.07100
C883        C  0.84266483  0.99969655  0.73056855     0.08900
C884        C  0.83991244  0.00424908  0.77945995    -0.17800
C885        C  0.85279209  0.99234225  0.12545732    -0.17000
C886        C  0.84797464  0.99511283  0.17419025     0.07100
C887        C  0.84266732  0.00036725  0.23060317     0.08900
C888        C  0.83989700  0.00486295  0.27952087    -0.17800
C889        C  0.98533846  0.22854392  0.73608653    -0.17000
C890        C  0.98494159  0.24833714  0.75147824     0.07100
C891        C  0.98510074  0.27152777  0.76967720     0.08900
C892        C  0.98572450  0.29129952  0.78518782    -0.17800
C893        C  0.90526568  0.07355621  0.87224547    -0.17000
C894        C  0.91273563  0.09131689  0.85321834     0.07100
C895        C  0.92097859  0.11237295  0.83101437     0.08900
C896        C  0.93080554  0.12843776  0.80962697    -0.17800
C897        C  0.88253759  0.08007955  0.56020296    -0.17000
C898        C  0.89861623  0.08983081  0.58170361     0.07100
C899        C  0.91967066  0.09803739  0.60395049     0.08900
C900        C  0.93742578  0.10551601  0.62294747    -0.17800
C901        C  0.98539197  0.29126773  0.28531950    -0.17000
C902        C  0.98468637  0.27149087  0.26989548     0.07100
C903        C  0.98449157  0.24830060  0.25173666     0.08900
C904        C  0.98491296  0.22851811  0.23629506    -0.17800
C905        C  0.93061144  0.12855830  0.30970028    -0.17000
C906        C  0.92083773  0.11255018  0.33145678     0.07100
C907        C  0.91270189  0.09151857  0.35398984     0.08900
C908        C  0.90530273  0.07375339  0.37313065    -0.17800
C909        C  0.00642696  0.17104344  0.02957420    -0.17000
C910        C  0.01096554  0.16832301  0.98067468     0.07100
C911        C  0.01619083  0.16304860  0.92424877     0.08900
C912        C  0.01888044  0.15821873  0.87550928    -0.17800
C913        C  0.01873780  0.15805542  0.37540630    -0.17000
C914        C  0.01613985  0.16283683  0.42420223     0.07100
C915        C  0.01102343  0.16809297  0.48069516     0.08900
C916        C  0.00656253  0.17082712  0.52963102    -0.17800
C917        C  0.93723636  0.10558467  0.12242721    -0.17000
C918        C  0.91948410  0.09815933  0.10327714     0.07100
C919        C  0.89844716  0.08999022  0.08083144     0.08900
C920        C  0.88240101  0.08021804  0.05923553    -0.17800
C921        C  0.01742027  0.79148068  0.78681954    -0.17000
C922        C  0.01796818  0.77169909  0.77127963     0.07100
C923        C  0.01797844  0.74850906  0.75293997     0.08900
C924        C  0.01745923  0.72873065  0.73737572    -0.17800
C925        C  0.90841978  0.96050066  0.91635267    -0.17000
C926        C  0.92153411  0.94630475  0.89802043     0.07100
C927        C  0.93749008  0.93034073  0.87609640     0.08900
C928        C  0.95167263  0.91725887  0.85756666    -0.17800
C929        C  0.01756798  0.72880966  0.23732112    -0.17000
C930        C  0.01805375  0.74859025  0.25287164     0.07100
C931        C  0.01797004  0.77179121  0.27112418     0.08900
C932        C  0.01736691  0.79158254  0.28657121    -0.17800
C933        C  0.90839269  0.96069215  0.41605590    -0.17000
C934        C  0.92150505  0.94649358  0.39775275     0.07100
C935        C  0.93744909  0.93049835  0.37595319     0.08900
C936        C  0.95162434  0.91738173  0.35756179    -0.17800
C937        C  0.98343114  0.86194766  0.64777170    -0.17000
C938        C  0.98610368  0.85712687  0.59899970     0.07100
C939        C  0.99131512  0.85179901  0.54255828     0.08900
C940        C  0.99583386  0.84901296  0.49364699    -0.17800
C941        C  0.98329605  0.86215127  0.14779815    -0.17000
C942        C  0.98597069  0.85730713  0.09904157     0.07100
C943        C  0.99120325  0.85192304  0.04264528     0.08900
C944        C  0.99575364  0.84907746  0.99377157    -0.17800
C945        C  0.09411485  0.05965044  0.60728394    -0.17000
C946        C  0.08091558  0.07369433  0.62595860     0.07100
C947        C  0.06480772  0.08946454  0.64807212     0.08900
C948        C  0.05052834  0.10245668  0.66654547    -0.17800
C949        C  0.09713515  0.94669906  0.65045296    -0.17000
C950        C  0.08959114  0.92901480  0.66979584     0.07100
C951        C  0.08127498  0.90803837  0.69239641     0.08900
C952        C  0.07145204  0.89200073  0.71398067    -0.17800
C953        C  0.06467110  0.91465726  0.40102797    -0.17000
C954        C  0.08241711  0.92216582  0.42003497     0.07100
C955        C  0.10349865  0.93040646  0.44210652     0.08900
C956        C  0.11963927  0.94017326  0.46331873    -0.17800
C957        C  0.05038556  0.10260906  0.16628523    -0.17000
C958        C  0.06469298  0.08962675  0.14791255     0.07100
C959        C  0.08082509  0.07385392  0.12593393     0.08900
C960        C  0.09403983  0.05980662  0.10734991    -0.17800
C961        C  0.09712888  0.94686378  0.15047306    -0.17000
C962        C  0.08955220  0.92918446  0.16975625     0.07100
C963        C  0.08119524  0.90820792  0.19225095     0.08900
C964        C  0.07135065  0.89217046  0.21377028    -0.17800
C965        C  0.16250685  0.01572335  0.74309918    -0.17000
C966        C  0.15962878  0.02027637  0.79197022     0.07100
C967        C  0.15421677  0.02556299  0.84834197     0.08900
C968        C  0.14936789  0.02831808  0.89708320    -0.17800
C969        C  0.16257833  0.01580819  0.24300136    -0.17000
C970        C  0.15973487  0.02030828  0.29191206     0.07100
C971        C  0.15434653  0.02551868  0.34833614     0.08900
C972        C  0.14950125  0.02820344  0.39710186    -0.17800
C973        C  0.11955189  0.94035547  0.96323946    -0.17000
C974        C  0.10342423  0.93055071  0.94207486     0.07100
C975        C  0.08236340  0.92224136  0.92004244     0.08900
C976        C  0.06464047  0.91467313  0.90105334    -0.17800
C977        C  0.71964028  0.02642168  0.53545558    -0.17000
C978        C  0.73942516  0.02686712  0.52006035     0.07100
C979        C  0.76261367  0.02672615  0.50191919     0.08900
C980        C  0.78239041  0.02609513  0.48650132    -0.17800
C981        C  0.71962641  0.02620586  0.03503956    -0.17000
C982        C  0.73942227  0.02664192  0.01972928     0.07100
C983        C  0.76261970  0.02649025  0.00166078     0.08900
C984        C  0.78239498  0.02586376  0.98623200    -0.17800
C985        C  0.66208195  0.00490983  0.74214634    -0.17000
C986        C  0.65926764  0.00038392  0.79103051     0.07100
C987        C  0.65389426  0.99517284  0.84743501     0.08900
C988        C  0.64904664  0.99247904  0.89617814    -0.17800
C989        C  0.64926366  0.99263691  0.39615549    -0.17000
C990        C  0.65411865  0.99526816  0.34739897     0.07100
C991        C  0.65948137  0.00038747  0.29094453     0.08900
C992        C  0.66228043  0.00483097  0.24201362    -0.17800
C993        C  0.51740326  0.29206887  0.73641890    -0.17000
C994        C  0.51788296  0.27228406  0.75189200     0.07100
C995        C  0.51780221  0.24910145  0.77021181     0.08900
C996        C  0.51721274  0.22933730  0.78581738    -0.17800
C997        C  0.61928778  0.08048276  0.96241269    -0.17000
C998        C  0.60326099  0.09030276  0.94083940     0.07100
C999        C  0.58226159  0.09857088  0.91837378     0.08900
C1000       C  0.56455331  0.10610220  0.89921587    -0.17800
C1001       C  0.59662468  0.07408038  0.64924402    -0.17000
C1002       C  0.58913275  0.09183628  0.66832845     0.07100
C1003       C  0.58089227  0.11288674  0.69068632     0.08900
C1004       C  0.57112108  0.12896799  0.71223133    -0.17800
C1005       C  0.51750226  0.29201923  0.23581359    -0.17000
C1006       C  0.51797116  0.27224049  0.25133523     0.07100
C1007       C  0.51786608  0.24906265  0.26969117     0.08900
C1008       C  0.51724789  0.22930046  0.28530511    -0.17800
C1009       C  0.56450542  0.10622940  0.39979069    -0.17000
C1010       C  0.58224214  0.09871984  0.41883526     0.07100
C1011       C  0.60329347  0.09047664  0.44105248     0.08900
C1012       C  0.61937582  0.08067845  0.46243057    -0.17800
C1013       C  0.49584809  0.17213492  0.49284134    -0.17000
C1014       C  0.49132285  0.16941312  0.54177060     0.07100
C1015       C  0.48604334  0.16409945  0.59818790     0.08900
C1016       C  0.48327531  0.15922825  0.64689762    -0.17800
C1017       C  0.48314961  0.15888875  0.14698224    -0.17000
C1018       C  0.48590869  0.16370941  0.09823866     0.07100
C1019       C  0.49121392  0.16902319  0.04183206     0.08900
C1020       C  0.49578086  0.17179343  0.99293936    -0.17800
C1021       C  0.59672187  0.07380591  0.14987759    -0.17000
C1022       C  0.58918883  0.09153869  0.16899660     0.07100
C1023       C  0.58088022  0.11258366  0.19124100     0.08900
C1024       C  0.57106918  0.12868091  0.21261152    -0.17800
C1025       C  0.48575949  0.79161405  0.73724846    -0.17000
C1026       C  0.48527802  0.77178689  0.75238125     0.07100
C1027       C  0.48533903  0.74854473  0.77022416     0.08900
C1028       C  0.48591586  0.72873437  0.78546462    -0.17800
C1029       C  0.55080974  0.91779249  0.66642650    -0.17000
C1030       C  0.56491998  0.93088124  0.64756945     0.07100
C1031       C  0.58079572  0.94680615  0.62505695     0.08900
C1032       C  0.59382498  0.96096037  0.60615348    -0.17800
C1033       C  0.48542815  0.79159410  0.23727112    -0.17000
C1034       C  0.48494202  0.77178536  0.25253180     0.07100
C1035       C  0.48504186  0.74854661  0.27037773     0.08900
C1036       C  0.48568125  0.72872355  0.28549312    -0.17800
C1037       C  0.59387746  0.96070314  0.10649447    -0.17000
C1038       C  0.58082487  0.94655987  0.12534320     0.07100
C1039       C  0.56489806  0.93066583  0.14775667     0.08900
C1040       C  0.55073706  0.91760964  0.16651187    -0.17800
C1041       C  0.51939820  0.86215090  0.87643402    -0.17000
C1042       C  0.51668189  0.85722489  0.92512491     0.07100
C1043       C  0.51144143  0.85179513  0.98149037     0.08900
C1044       C  0.50690126  0.84898623  0.03037529    -0.17800
C1045       C  0.50685500  0.84912760  0.53052085    -0.17000
C1046       C  0.51129962  0.85191162  0.48157538     0.07100
C1047       C  0.51644469  0.85727312  0.42511923     0.08900
C1048       C  0.51911197  0.86213145  0.37637188    -0.17800
C1049       C  0.28283186  0.99468563  0.98643604    -0.17000
C1050       C  0.26305311  0.99415520  0.00195679     0.07100
C1051       C  0.23985693  0.99413025  0.02020235     0.08900
C1052       C  0.22006907  0.99462921  0.03566676    -0.17800
C1053       C  0.40864188  0.06017471  0.91590304    -0.17000
C1054       C  0.42165971  0.07438566  0.89727869     0.07100
C1055       C  0.43750303  0.09039498  0.87510381     0.08900
C1056       C  0.45160556  0.10352802  0.85647062    -0.17800
C1057       C  0.43141857  0.89206220  0.81053110    -0.17000
C1058       C  0.42168183  0.90823331  0.83173890     0.07100
C1059       C  0.41348689  0.92934509  0.85379868     0.08900
C1060       C  0.40598973  0.94711106  0.87277759    -0.17800
C1061       C  0.38304566  0.94045021  0.05993265    -0.17000
C1062       C  0.39901548  0.93054979  0.08158566     0.07100
C1063       C  0.41997241  0.92214697  0.10407916     0.08900
C1064       C  0.43767311  0.91456806  0.12322737    -0.17800
C1065       C  0.28285780  0.99438036  0.48678106    -0.17000
C1066       C  0.26308246  0.99383490  0.50229141     0.07100
C1067       C  0.23989126  0.99383048  0.52052480     0.08900
C1068       C  0.22010706  0.99436511  0.53597890    -0.17800
C1069       C  0.40850076  0.06009763  0.41541291    -0.17000
C1070       C  0.42151250  0.07434703  0.39696185     0.07100
C1071       C  0.43736755  0.09040825  0.37509924     0.08900
C1072       C  0.45149304  0.10357366  0.35673009    -0.17800
C1073       C  0.40589750  0.94700884  0.37245786    -0.17000
C1074       C  0.41332850  0.92923140  0.35341437     0.07100
C1075       C  0.42144784  0.90811175  0.33127846     0.08900
C1076       C  0.43116171  0.89194763  0.31000295    -0.17800
C1077       C  0.35328899  0.02848507  0.62533497    -0.17000
C1078       C  0.34851432  0.02579521  0.67412370     0.07100
C1079       C  0.34325079  0.02057027  0.73058850     0.08900
C1080       C  0.34049254  0.01604772  0.77950038    -0.17800
C1081       C  0.34019361  0.01573580  0.27951542    -0.17000
C1082       C  0.34293753  0.02027696  0.23061228     0.07100
C1083       C  0.34824049  0.02557997  0.17421711     0.08900
C1084       C  0.35308149  0.02836906  0.12550233    -0.17800
C1085       C  0.43779146  0.91460883  0.62369045    -0.17000
C1086       C  0.42010591  0.92218123  0.60445050     0.07100
C1087       C  0.39916692  0.93056128  0.58181957     0.08900
C1088       C  0.38320530  0.94043216  0.56005460    -0.17800
loop_ 
_geom_bond_atom_site_label_1 
_geom_bond_atom_site_label_2 
_geom_bond_distance 
_geom_bond_site_symmetry_2 
_ccdc_geom_bond_type 
O1          Cr19   2.017   1_545  S
O1            C9   1.268       .  A
O2          Cr19   1.954       .  S
O2            C3   1.249       .  A
C3            O4   1.270       .  A
C3         C1088   1.437       .  S
O4          Cr20   2.041       .  S
O5          Cr20   1.986       .  S
O5            C6   1.259       .  A
C6            O7   1.263   1_565  A
C6         C1065   1.441       .  S
O7          Cr21   2.010       .  S
O8          Cr21   1.969       .  S
O8            C9   1.257       .  A
C9         C1077   1.436       .  S
O10         Cr19   1.974   1_545  S
O10          C18   1.257       .  A
O11         Cr19   2.032       .  S
O11          C12   1.269       .  A
C12          O13   1.256       .  A
C12        C1073   1.439       .  S
O13         Cr20   1.965       .  S
O14         Cr20   2.032       .  S
O14          C15   1.274   1_565  A
C15          O16   1.258       .  A
C15        C1081   1.436       .  S
O16         Cr21   1.960       .  S
O17         Cr21   2.016       .  S
O17          C18   1.265       .  A
C18        C1069   1.436       .  S
Cr19         O22   1.764   1_565  S
Cr20         O22   1.769   1_565  S
Cr21         O22   1.772       .  S
O23         Cr41   2.017   1_554  S
O23          C31   1.268       .  A
O24         Cr41   1.954   1_564  S
O24          C25   1.249       .  A
C25          O26   1.270   1_554  A
C25        C1061   1.437       .  S
O26         Cr42   2.041       .  S
O27         Cr42   1.986       .  S
O27          C28   1.259       .  A
C28          O29   1.263   1_565  A
C28        C1049   1.442       .  S
O29         Cr43   2.011       .  S
O30         Cr43   1.969   1_554  S
O30          C31   1.257       .  A
C31        C1084   1.436       .  S
O32         Cr41   1.974       .  S
O32          C40   1.257       .  A
O33         Cr41   2.032   1_565  S
O33          C34   1.269       .  A
C34          O35   1.256       .  A
C34        C1060   1.440       .  S
O35         Cr42   1.965       .  S
O36         Cr42   2.032       .  S
O36          C37   1.274   1_565  A
C37          O38   1.258       .  A
C37        C1080   1.436       .  S
O38         Cr43   1.960       .  S
O39         Cr43   2.016       .  S
O39          C40   1.265       .  A
C40        C1053   1.437       .  S
Cr41         O44   1.764       .  S
Cr42         O44   1.769   1_565  S
Cr43         O44   1.772       .  S
O45         Cr63   1.969       .  S
O45          C53   1.257       .  A
O46         Cr63   2.010       .  S
O46          C47   1.263       .  A
C47          O48   1.259       .  A
C47        C1033   1.441       .  S
O48         Cr64   1.986       .  S
O49         Cr64   2.040       .  S
O49          C50   1.270       .  A
C50          O51   1.249       .  A
C50        C1076   1.435       .  S
O51         Cr65   1.953       .  S
O52         Cr65   2.017       .  S
O52          C53   1.268       .  A
C53        C1048   1.436       .  S
O54         Cr63   2.017       .  S
O54          C62   1.266       .  A
O55         Cr63   1.960       .  S
O55          C56   1.258       .  A
C56          O57   1.274       .  A
C56        C1044   1.436       .  S
O57         Cr64   2.031       .  S
O58         Cr64   1.966       .  S
O58          C59   1.256       .  A
C59          O60   1.270       .  A
C59        C1064   1.441       .  S
O60         Cr65   2.033       .  S
O61         Cr65   1.974       .  S
O61          C62   1.258       .  A
C62        C1040   1.438       .  S
Cr63         O66   1.772       .  S
Cr64         O66   1.770       .  S
Cr65         O66   1.764       .  S
O67         Cr85   1.969       .  S
O67          C75   1.257       .  A
O68         Cr85   2.011       .  S
O68          C69   1.263       .  A
C69          O70   1.259       .  A
C69        C1025   1.441       .  S
O70         Cr86   1.986       .  S
O71         Cr86   2.040       .  S
O71          C72   1.270       .  A
C72          O73   1.249       .  A
C72        C1057   1.436       .  S
O73         Cr87   1.953       .  S
O74         Cr87   2.017       .  S
O74          C75   1.268       .  A
C75        C1041   1.436       .  S
O76         Cr85   2.017       .  S
O76          C84   1.266       .  A
O77         Cr85   1.960       .  S
O77          C78   1.258       .  A
C78          O79   1.274       .  A
C78        C1045   1.436       .  S
O79         Cr86   2.031       .  S
O80         Cr86   1.966       .  S
O80          C81   1.256       .  A
C81          O82   1.270       .  A
C81        C1085   1.441       .  S
O82         Cr87   2.033       .  S
O83         Cr87   1.974       .  S
O83          C84   1.258       .  A
C84        C1029   1.438       .  S
Cr85         O88   1.772       .  S
Cr86         O88   1.770       .  S
Cr87         O88   1.764       .  S
O89        Cr107   2.017       .  S
O89          C97   1.268       .  A
O90        Cr107   1.954       .  S
O90          C91   1.249       .  A
C91          O92   1.270       .  A
C91        C1024   1.436       .  S
O92        Cr108   2.041       .  S
O93        Cr108   1.986       .  S
O93          C94   1.259       .  A
C94          O95   1.264       .  A
C94        C1008   1.441       .  S
O95        Cr109   2.011       .  S
O96        Cr109   1.969       .  S
O96          C97   1.257       .  A
C97        C1017   1.436       .  S
O98        Cr107   1.973       .  S
O98         C106   1.257       .  A
O99        Cr107   2.032       .  S
O99         C100   1.270       .  A
C100        O101   1.256       .  A
C100       C1009   1.440       .  S
O101       Cr108   1.965       .  S
O102       Cr108   2.032       .  S
O102        C103   1.274       .  A
C103        O104   1.258       .  A
C103       C1013   1.437       .  S
O104       Cr109   1.960       .  S
O105       Cr109   2.017       .  S
O105        C106   1.266       .  A
C106       C1072   1.436       .  S
Cr107       O110   1.764       .  S
Cr108       O110   1.769       .  S
Cr109       O110   1.772       .  S
O111       Cr129   2.017       .  S
O111        C119   1.268       .  A
O112       Cr129   1.954       .  S
O112        C113   1.249       .  A
C113        O114   1.270       .  A
C113       C1004   1.436       .  S
O114       Cr130   2.041       .  S
O115       Cr130   1.986       .  S
O115        C116   1.259       .  A
C116        O117   1.264       .  A
C116        C996   1.441       .  S
O117       Cr131   2.011       .  S
O118       Cr131   1.969       .  S
O118        C119   1.257       .  A
C119       C1016   1.436       .  S
O120       Cr129   1.973       .  S
O120        C128   1.257       .  A
O121       Cr129   2.033       .  S
O121        C122   1.270       .  A
C122        O123   1.256       .  A
C122       C1000   1.440       .  S
O123       Cr130   1.965       .  S
O124       Cr130   2.032       .  S
O124        C125   1.274       .  A
C125        O126   1.258       .  A
C125       C1020   1.437       .  S
O126       Cr131   1.960       .  S
O127       Cr131   2.017       .  S
O127        C128   1.266       .  A
C128       C1056   1.437       .  S
Cr129       O132   1.764       .  S
Cr130       O132   1.769       .  S
Cr131       O132   1.772       .  S
O133       Cr151   1.968   1_556  S
O133        C141   1.257       .  A
O134       Cr151   2.010   1_545  S
O134        C135   1.263       .  A
C135        O136   1.259       .  A
C135        C981   1.440       .  S
O136       Cr152   1.986       .  S
O137       Cr152   2.041       .  S
O137        C138   1.270   1_554  A
C138        O139   1.249       .  A
C138        C997   1.436       .  S
O139       Cr153   1.953   1_556  S
O140       Cr153   2.017   1_566  S
O140        C141   1.269       .  A
C141        C988   1.436       .  S
O142       Cr151   2.017       .  S
O142        C150   1.266       .  A
O143       Cr151   1.959       .  S
O143        C144   1.258   1_565  A
C144        O145   1.274       .  A
C144        C992   1.436       .  S
O145       Cr152   2.031       .  S
O146       Cr152   1.965       .  S
O146        C147   1.256       .  A
C147        O148   1.270       .  A
C147       C1021   1.440       .  S
O148       Cr153   2.033       .  S
O149       Cr153   1.974   1_565  S
O149        C150   1.258       .  A
C150       C1037   1.438       .  S
Cr151       O154   1.772   1_565  S
Cr152       O154   1.769       .  S
Cr153       O154   1.764       .  S
O155       Cr173   1.969       .  S
O155        C163   1.257       .  A
O156       Cr173   2.010   1_545  S
O156        C157   1.263       .  A
C157        O158   1.259       .  A
C157        C977   1.441       .  S
O158       Cr174   1.986       .  S
O159       Cr174   2.040       .  S
O159        C160   1.270       .  A
C160        O161   1.249       .  A
C160       C1012   1.436       .  S
O161       Cr175   1.954       .  S
O162       Cr175   2.017   1_565  S
O162        C163   1.268       .  A
C163        C989   1.436       .  S
O164       Cr173   2.017       .  S
O164        C172   1.266       .  A
O165       Cr173   1.959       .  S
O165        C166   1.258   1_565  A
C166        O167   1.274       .  A
C166        C985   1.436       .  S
O167       Cr174   2.031       .  S
O168       Cr174   1.965       .  S
O168        C169   1.256       .  A
C169        O170   1.270       .  A
C169       C1001   1.440       .  S
O170       Cr175   2.033       .  S
O171       Cr175   1.975   1_565  S
O171        C172   1.258       .  A
C172       C1032   1.438       .  S
Cr173       O176   1.772   1_565  S
Cr174       O176   1.769       .  S
Cr175       O176   1.764       .  S
O177       Cr195   2.017   1_546  S
O177        C185   1.268       .  A
O178       Cr195   1.953   1_556  S
O178        C179   1.249       .  A
C179        O180   1.270   1_556  A
C179        C973   1.436       .  S
O180       Cr196   2.041       .  S
O181       Cr196   1.987       .  S
O181        C182   1.260       .  A
C182        O183   1.263   1_565  A
C182       C1052   1.442       .  S
O183       Cr197   2.011       .  S
O184       Cr197   1.969   1_556  S
O184        C185   1.257       .  A
C185        C968   1.436       .  S
O186       Cr195   1.973   1_545  S
O186        C194   1.257       .  A
O187       Cr195   2.033       .  S
O187        C188   1.270       .  A
C188        O189   1.256       .  A
C188        C961   1.441       .  S
O189       Cr196   1.966       .  S
O190       Cr196   2.032       .  S
O190        C191   1.274   1_565  A
C191        O192   1.258       .  A
C191        C969   1.437       .  S
O192       Cr197   1.960       .  S
O193       Cr197   2.017       .  S
O193        C194   1.266       .  A
C194        C960   1.437       .  S
Cr195       O198   1.764   1_565  S
Cr196       O198   1.769   1_565  S
Cr197       O198   1.772       .  S
O199       Cr217   2.017   1_545  S
O199        C207   1.268       .  A
O200       Cr217   1.953       .  S
O200        C201   1.249       .  A
C201        O202   1.270       .  A
C201        C956   1.436       .  S
O202       Cr218   2.041       .  S
O203       Cr218   1.986       .  S
O203        C204   1.259       .  A
C204        O205   1.263   1_565  A
C204       C1068   1.441       .  S
O205       Cr219   2.011       .  S
O206       Cr219   1.969       .  S
O206        C207   1.257       .  A
C207        C972   1.436       .  S
O208       Cr217   1.973   1_545  S
O208        C216   1.257       .  A
O209       Cr217   2.033       .  S
O209        C210   1.270       .  A
C210        O211   1.256       .  A
C210        C949   1.441       .  S
O211       Cr218   1.966       .  S
O212       Cr218   2.032       .  S
O212        C213   1.274   1_565  A
C213        O214   1.258       .  A
C213        C965   1.437       .  S
O214       Cr219   1.960       .  S
O215       Cr219   2.017       .  S
O215        C216   1.266       .  A
C216        C945   1.437       .  S
Cr217       O220   1.764   1_565  S
Cr218       O220   1.769   1_565  S
Cr219       O220   1.772       .  S
O221       Cr239   1.968       .  S
O221        C229   1.257       .  A
O222       Cr239   2.011       .  S
O222        C223   1.264   1_655  A
C223        O224   1.259       .  A
C223        C932   1.442       .  S
O224       Cr240   1.986       .  S
O225       Cr240   2.041       .  S
O225        C226   1.270       .  A
C226        O227   1.249       .  A
C226        C964   1.437       .  S
O227       Cr241   1.953       .  S
O228       Cr241   2.017   1_655  S
O228        C229   1.269       .  A
C229        C941   1.436       .  S
O230       Cr239   2.016       .  S
O230        C238   1.266       .  A
O231       Cr239   1.959       .  S
O231        C232   1.258       .  A
C232        O233   1.274   1_655  A
C232        C940   1.436       .  S
O233       Cr240   2.032       .  S
O234       Cr240   1.965       .  S
O234        C235   1.256       .  A
C235        O236   1.270       .  A
C235        C953   1.440       .  S
O236       Cr241   2.032       .  S
O237       Cr241   1.973   1_655  S
O237        C238   1.257       .  A
C238        C936   1.436       .  S
Cr239       O242   1.772   1_655  S
Cr240       O242   1.769       .  S
Cr241       O242   1.764       .  S
O243       Cr261   1.969       .  S
O243        C251   1.257       .  A
O244       Cr261   2.011       .  S
O244        C245   1.263   1_655  A
C245        O246   1.260       .  A
C245        C921   1.442       .  S
O246       Cr262   1.987       .  S
O247       Cr262   2.042       .  S
O247        C248   1.270       .  A
C248        O249   1.249       .  A
C248        C952   1.437       .  S
O249       Cr263   1.953       .  S
O250       Cr263   2.017   1_655  S
O250        C251   1.268       .  A
C251        C937   1.436       .  S
O252       Cr261   2.017       .  S
O252        C260   1.266       .  A
O253       Cr261   1.959       .  S
O253        C254   1.258       .  A
C254        O255   1.274   1_655  A
C254        C944   1.436       .  S
O255       Cr262   2.032       .  S
O256       Cr262   1.966       .  S
O256        C257   1.256       .  A
C257        O258   1.269       .  A
C257        C976   1.440       .  S
O258       Cr263   2.032       .  S
O259       Cr263   1.973   1_655  S
O259        C260   1.257       .  A
C260        C928   1.437       .  S
Cr261       O264   1.772   1_655  S
Cr262       O264   1.769       .  S
Cr263       O264   1.764       .  S
O265       Cr283   2.016   1_455  S
O265        C273   1.268       .  A
O266       Cr283   1.953       .  S
O266        C267   1.249       .  A
C267        O268   1.270       .  A
C267        C905   1.435       .  S
O268       Cr284   2.040       .  S
O269       Cr284   1.985       .  S
O269        C270   1.259       .  A
C270        O271   1.263   1_655  A
C270        C904   1.440       .  S
O271       Cr285   2.010       .  S
O272       Cr285   1.968       .  S
O272        C273   1.257       .  A
C273        C913   1.435       .  S
O274       Cr283   1.974   1_455  S
O274        C282   1.258       .  A
O275       Cr283   2.033       .  S
O275        C276   1.270       .  A
C276        O277   1.256       .  A
C276        C917   1.440       .  S
O277       Cr284   1.965       .  S
O278       Cr284   2.031       .  S
O278        C279   1.274   1_655  A
C279        O280   1.258       .  A
C279        C909   1.435       .  S
O280       Cr285   1.959       .  S
O281       Cr285   2.016       .  S
O281        C282   1.265       .  A
C282        C957   1.437       .  S
Cr283       O286   1.764       .  S
Cr284       O286   1.769       .  S
Cr285       O286   1.772   1_455  S
O287       Cr305   2.016   1_455  S
O287        C295   1.268       .  A
O288       Cr305   1.954       .  S
O288        C289   1.249       .  A
C289        O290   1.270       .  A
C289        C896   1.436       .  S
O290       Cr306   2.040       .  S
O291       Cr306   1.986       .  S
O291        C292   1.259       .  A
C292        O293   1.263   1_655  A
C292        C889   1.441       .  S
O293       Cr307   2.010       .  S
O294       Cr307   1.968       .  S
O294        C295   1.257       .  A
C295        C912   1.435       .  S
O296       Cr305   1.974   1_455  S
O296        C304   1.258       .  A
O297       Cr305   2.032       .  S
O297        C298   1.270       .  A
C298        O299   1.256       .  A
C298        C900   1.440       .  S
O299       Cr306   1.965       .  S
O300       Cr306   2.031       .  S
O300        C301   1.274   1_655  A
C301        O302   1.258       .  A
C301        C916   1.435       .  S
O302       Cr307   1.959       .  S
O303       Cr307   2.016       .  S
O303        C304   1.265       .  A
C304        C948   1.437       .  S
Cr305       O308   1.764       .  S
Cr306       O308   1.769       .  S
Cr307       O308   1.772   1_455  S
O309       Cr327   1.969       .  S
O309        C317   1.257       .  A
O310       Cr327   2.011   1_545  S
O310        C311   1.264       .  A
C311        O312   1.259       .  A
C311        C980   1.440       .  S
O312       Cr328   1.985       .  S
O313       Cr328   2.041       .  S
O313        C314   1.270       .  A
C314        O315   1.249       .  A
C314        C897   1.436       .  S
O315       Cr329   1.954       .  S
O316       Cr329   2.016   1_565  S
O316        C317   1.268       .  A
C317        C881   1.435       .  S
O318       Cr327   2.016       .  S
O318        C326   1.266       .  A
O319       Cr327   1.960       .  S
O319        C320   1.258   1_565  A
C320        O321   1.274       .  A
C320        C888   1.436       .  S
O321       Cr328   2.031       .  S
O322       Cr328   1.965       .  S
O322        C323   1.256       .  A
C323        O324   1.270       .  A
C323        C908   1.439       .  S
O324       Cr329   2.032       .  S
O325       Cr329   1.973   1_565  S
O325        C326   1.258       .  A
C326        C933   1.436       .  S
Cr327       O330   1.772   1_565  S
Cr328       O330   1.769       .  S
Cr329       O330   1.764       .  S
O331       Cr349   1.969   1_554  S
O331        C339   1.257       .  A
O332       Cr349   2.010   1_545  S
O332        C333   1.263       .  A
C333        O334   1.259       .  A
C333        C984   1.440       .  S
O334       Cr350   1.985       .  S
O335       Cr350   2.041       .  S
O335        C336   1.270   1_556  A
C336        O337   1.249       .  A
C336        C920   1.436       .  S
O337       Cr351   1.953   1_554  S
O338       Cr351   2.016   1_564  S
O338        C339   1.268       .  A
C339        C885   1.436       .  S
O340       Cr349   2.017       .  S
O340        C348   1.266       .  A
O341       Cr349   1.959       .  S
O341        C342   1.258   1_565  A
C342        O343   1.274       .  A
C342        C884   1.436       .  S
O343       Cr350   2.031       .  S
O344       Cr350   1.965       .  S
O344        C345   1.256       .  A
C345        O346   1.269       .  A
C345        C893   1.440       .  S
O346       Cr351   2.032       .  S
O347       Cr351   1.974   1_565  S
O347        C348   1.258       .  A
C348        C925   1.437       .  S
Cr349       O352   1.772   1_565  S
Cr350       O352   1.769       .  S
Cr351       O352   1.764       .  S
O353       Cr371   2.017       .  S
O353        C361   1.269       .  A
O354       Cr371   1.953       .  S
O354        C355   1.249       .  A
C355        O356   1.270       .  A
C355        C872   1.437       .  S
O356       Cr372   2.041       .  S
O357       Cr372   1.986       .  S
O357        C358   1.259       .  A
C358        O359   1.263       .  A
C358       C1005   1.441       .  S
O359       Cr373   2.010       .  S
O360       Cr373   1.969       .  S
O360        C361   1.257       .  A
C361        C880   1.436       .  S
O362       Cr371   1.974       .  S
O362        C370   1.257       .  A
O363       Cr371   2.032       .  S
O363        C364   1.269       .  A
C364        O365   1.256       .  A
C364        C865   1.440       .  S
O365       Cr372   1.965       .  S
O366       Cr372   2.032       .  S
O366        C367   1.274       .  A
C367        O368   1.258       .  A
C367        C876   1.437       .  S
O368       Cr373   1.960       .  S
O369       Cr373   2.016       .  S
O369        C370   1.265       .  A
C370        C864   1.436       .  S
Cr371       O374   1.764       .  S
Cr372       O374   1.769       .  S
Cr373       O374   1.772       .  S
O375       Cr393   2.017       .  S
O375        C383   1.269       .  A
O376       Cr393   1.953       .  S
O376        C377   1.249       .  A
C377        O378   1.270       .  A
C377        C857   1.436       .  S
O378       Cr394   2.041       .  S
O379       Cr394   1.986       .  S
O379        C380   1.259       .  A
C380        O381   1.263       .  A
C380        C993   1.441       .  S
O381       Cr395   2.010       .  S
O382       Cr395   1.969       .  S
O382        C383   1.257       .  A
C383        C873   1.436       .  S
O384       Cr393   1.974       .  S
O384        C392   1.257       .  A
O385       Cr393   2.032       .  S
O385        C386   1.269       .  A
C386        O387   1.256       .  A
C386        C853   1.440       .  S
O387       Cr394   1.965       .  S
O388       Cr394   2.031       .  S
O388        C389   1.274       .  A
C389        O390   1.258       .  A
C389        C877   1.436       .  S
O390       Cr395   1.959       .  S
O391       Cr395   2.016       .  S
O391        C392   1.265       .  A
C392        C849   1.436       .  S
Cr393       O396   1.764       .  S
Cr394       O396   1.769       .  S
Cr395       O396   1.772       .  S
O397       Cr415   1.969       .  S
O397        C405   1.257       .  A
O398       Cr415   2.010       .  S
O398        C399   1.263       .  A
C399        O400   1.259       .  A
C399        C833   1.441       .  S
O400       Cr416   1.986       .  S
O401       Cr416   2.041       .  S
O401        C402   1.270       .  A
C402        O403   1.249       .  A
C402        C856   1.436       .  S
O403       Cr417   1.953       .  S
O404       Cr417   2.017       .  S
O404        C405   1.268       .  A
C405        C841   1.437       .  S
O406       Cr415   2.016       .  S
O406        C414   1.266       .  A
O407       Cr415   1.960       .  S
O407        C408   1.258       .  A
C408        O409   1.274       .  A
C408        C848   1.437       .  S
O409       Cr416   2.032       .  S
O410       Cr416   1.966       .  S
O410        C411   1.256       .  A
C411        O412   1.270       .  A
C411        C869   1.441       .  S
O412       Cr417   2.033       .  S
O413       Cr417   1.973       .  S
O413        C414   1.257       .  A
C414        C837   1.436       .  S
Cr415       O418   1.772       .  S
Cr416       O418   1.769       .  S
Cr417       O418   1.764       .  S
O419       Cr437   1.969   1_554  S
O419        C427   1.257       .  A
O420       Cr437   2.011       .  S
O420        C421   1.263       .  A
C421        O422   1.259       .  A
C421        C825   1.441       .  S
O422       Cr438   1.986       .  S
O423       Cr438   2.041       .  S
O423        C424   1.270   1_556  A
C424        O425   1.249       .  A
C424        C868   1.436       .  S
O425       Cr439   1.953   1_554  S
O426       Cr439   2.017   1_554  S
O426        C427   1.268       .  A
C427        C845   1.436       .  S
O428       Cr437   2.016       .  S
O428        C436   1.266       .  A
O429       Cr437   1.960       .  S
O429        C430   1.258       .  A
C430        O431   1.274       .  A
C430        C844   1.437       .  S
O431       Cr438   2.032       .  S
O432       Cr438   1.966       .  S
O432        C433   1.256       .  A
C433        O434   1.269       .  A
C433        C860   1.440       .  S
O434       Cr439   2.033       .  S
O435       Cr439   1.973       .  S
O435        C436   1.257       .  A
C436        C829   1.436       .  S
Cr437       O440   1.772       .  S
Cr438       O440   1.769       .  S
Cr439       O440   1.764       .  S
O441       Cr459   2.017   1_556  S
O441        C449   1.268       .  A
O442       Cr459   1.953   1_556  S
O442        C443   1.249       .  A
C443        O444   1.270   1_556  A
C443        C824   1.436       .  S
O444       Cr460   2.040       .  S
O445       Cr460   1.986       .  S
O445        C446   1.259       .  A
C446        O447   1.263       .  A
C446        C805   1.441       .  S
O447       Cr461   2.010       .  S
O448       Cr461   1.969   1_556  S
O448        C449   1.257       .  A
C449        C816   1.436       .  S
O450       Cr459   1.973       .  S
O450        C458   1.257       .  A
O451       Cr459   2.032       .  S
O451        C452   1.270       .  A
C452        O453   1.256       .  A
C452        C812   1.440       .  S
O453       Cr460   1.966       .  S
O454       Cr460   2.031       .  S
O454        C455   1.274       .  A
C455        O456   1.258       .  A
C455        C817   1.436       .  S
O456       Cr461   1.960       .  S
O457       Cr461   2.016       .  S
O457        C458   1.265       .  A
C458        C861   1.436       .  S
Cr459       O462   1.764       .  S
Cr460       O462   1.769       .  S
Cr461       O462   1.772       .  S
O463       Cr481   2.016       .  S
O463        C471   1.268       .  A
O464       Cr481   1.953       .  S
O464        C465   1.249       .  A
C465        O466   1.270       .  A
C465        C801   1.436       .  S
O466       Cr482   2.041       .  S
O467       Cr482   1.986       .  S
O467        C468   1.259       .  A
C468        O469   1.263       .  A
C468        C796   1.441       .  S
O469       Cr483   2.010       .  S
O470       Cr483   1.969       .  S
O470        C471   1.257       .  A
C471        C820   1.436       .  S
O472       Cr481   1.973       .  S
O472        C480   1.257       .  A
O473       Cr481   2.033       .  S
O473        C474   1.269       .  A
C474        O475   1.256       .  A
C474        C800   1.440       .  S
O475       Cr482   1.965       .  S
O476       Cr482   2.031       .  S
O476        C477   1.274       .  A
C477        O478   1.258       .  A
C477        C813   1.436       .  S
O478       Cr483   1.960       .  S
O479       Cr483   2.016       .  S
O479        C480   1.266       .  A
C480        C852   1.436       .  S
Cr481       O484   1.764       .  S
Cr482       O484   1.769       .  S
Cr483       O484   1.772       .  S
O485       Cr503   1.968       .  S
O485        C493   1.257       .  A
O486       Cr503   2.011       .  S
O486        C487   1.263       .  A
C487        O488   1.259       .  A
C487       C1036   1.441       .  S
O488       Cr504   1.986       .  S
O489       Cr504   2.041       .  S
O489        C490   1.270       .  A
C490        O491   1.249       .  A
C490        C809   1.436       .  S
O491       Cr505   1.953       .  S
O492       Cr505   2.016       .  S
O492        C493   1.268       .  A
C493        C789   1.435       .  S
O494       Cr503   2.016       .  S
O494        C502   1.265       .  A
O495       Cr503   1.960       .  S
O495        C496   1.258       .  A
C496        O497   1.274       .  A
C496        C788   1.436       .  S
O497       Cr504   2.031       .  S
O498       Cr504   1.965       .  S
O498        C499   1.256       .  A
C499        O500   1.269       .  A
C499        C804   1.440       .  S
O500       Cr505   2.032       .  S
O501       Cr505   1.973       .  S
O501        C502   1.257       .  A
C502        C840   1.436       .  S
Cr503       O506   1.772       .  S
Cr504       O506   1.769       .  S
Cr505       O506   1.764       .  S
O507       Cr525   1.969       .  S
O507        C515   1.257       .  A
O508       Cr525   2.010       .  S
O508        C509   1.263       .  A
C509        O510   1.259       .  A
C509       C1028   1.441       .  S
O510       Cr526   1.986       .  S
O511       Cr526   2.041       .  S
O511        C512   1.270       .  A
C512        O513   1.249       .  A
C512        C797   1.436       .  S
O513       Cr527   1.953       .  S
O514       Cr527   2.017       .  S
O514        C515   1.268       .  A
C515        C785   1.436       .  S
O516       Cr525   2.016       .  S
O516        C524   1.265       .  A
O517       Cr525   1.959       .  S
O517        C518   1.258       .  A
C518        O519   1.274       .  A
C518        C792   1.436       .  S
O519       Cr526   2.031       .  S
O520       Cr526   1.965       .  S
O520        C521   1.256       .  A
C521        O522   1.269       .  A
C521        C821   1.440       .  S
O522       Cr527   2.032       .  S
O523       Cr527   1.974       .  S
O523        C524   1.258       .  A
C524        C832   1.436       .  S
Cr525       O528   1.772       .  S
Cr526       O528   1.769       .  S
Cr527       O528   1.764       .  S
O529       Cr547   2.017   1_455  S
O529        C537   1.268       .  A
O530       Cr547   1.953       .  S
O530        C531   1.249       .  A
C531        O532   1.270       .  A
C531        C784   1.435       .  S
O532       Cr548   2.040       .  S
O533       Cr548   1.985       .  S
O533        C534   1.259       .  A
C534        O535   1.263   1_655  A
C534        C901   1.441       .  S
O535       Cr549   2.010       .  S
O536       Cr549   1.969       .  S
O536        C537   1.257       .  A
C537        C780   1.436       .  S
O538       Cr547   1.974   1_455  S
O538        C546   1.258       .  A
O539       Cr547   2.032       .  S
O539        C540   1.269       .  A
C540        O541   1.256       .  A
C540        C769   1.440       .  S
O541       Cr548   1.965       .  S
O542       Cr548   2.031       .  S
O542        C543   1.274   1_655  A
C543        O544   1.258       .  A
C543        C776   1.436       .  S
O544       Cr549   1.960       .  S
O545       Cr549   2.017       .  S
O545        C546   1.266       .  A
C546        C765   1.438       .  S
Cr547       O550   1.764       .  S
Cr548       O550   1.769       .  S
Cr549       O550   1.772   1_455  S
O551       Cr569   2.017   1_455  S
O551        C559   1.268       .  A
O552       Cr569   1.953       .  S
O552        C553   1.249       .  A
C553        O554   1.270       .  A
C553        C761   1.435       .  S
O554       Cr570   2.040       .  S
O555       Cr570   1.986       .  S
O555        C556   1.259       .  A
C556        O557   1.263   1_655  A
C556        C892   1.441       .  S
O557       Cr571   2.010       .  S
O558       Cr571   1.969       .  S
O558        C559   1.257       .  A
C559        C773   1.436       .  S
O560       Cr569   1.974   1_455  S
O560        C568   1.258       .  A
O561       Cr569   2.032       .  S
O561        C562   1.269       .  A
C562        O563   1.256       .  A
C562        C757   1.440       .  S
O563       Cr570   1.965       .  S
O564       Cr570   2.031       .  S
O564        C565   1.274   1_655  A
C565        O566   1.258       .  A
C565        C777   1.436       .  S
O566       Cr571   1.960       .  S
O567       Cr571   2.017       .  S
O567        C568   1.266       .  A
C568        C753   1.437       .  S
Cr569       O572   1.764       .  S
Cr570       O572   1.769       .  S
Cr571       O572   1.772   1_455  S
O573       Cr591   1.968   1_556  S
O573        C581   1.257       .  A
O574       Cr591   2.010       .  S
O574        C575   1.263       .  A
C575        O576   1.259       .  A
C575        C828   1.441       .  S
O576       Cr592   1.986       .  S
O577       Cr592   2.041       .  S
O577        C578   1.270   1_554  A
C578        O579   1.249       .  A
C578        C760   1.436       .  S
O579       Cr593   1.954   1_556  S
O580       Cr593   2.017   1_556  S
O580        C581   1.268       .  A
C581        C748   1.436       .  S
O582       Cr591   2.016       .  S
O582        C590   1.266       .  A
O583       Cr591   1.960       .  S
O583        C584   1.258       .  A
C584        O585   1.274       .  A
C584        C749   1.436       .  S
O585       Cr592   2.031       .  S
O586       Cr592   1.965       .  S
O586        C587   1.256       .  A
C587        O588   1.269       .  A
C587        C781   1.439       .  S
O588       Cr593   2.032       .  S
O589       Cr593   1.974       .  S
O589        C590   1.257       .  A
C590        C741   1.436       .  S
Cr591       O594   1.772       .  S
Cr592       O594   1.769       .  S
Cr593       O594   1.764       .  S
O595       Cr613   1.969       .  S
O595        C603   1.257       .  A
O596       Cr613   2.010       .  S
O596        C597   1.263       .  A
C597        O598   1.259       .  A
C597        C836   1.441       .  S
O598       Cr614   1.986       .  S
O599       Cr614   2.041       .  S
O599        C600   1.270       .  A
C600        O601   1.249       .  A
C600        C772   1.436       .  S
O601       Cr615   1.954       .  S
O602       Cr615   2.017       .  S
O602        C603   1.268       .  A
C603        C752   1.436       .  S
O604       Cr613   2.016       .  S
O604        C612   1.266       .  A
O605       Cr613   1.960       .  S
O605        C606   1.258       .  A
C606        O607   1.274       .  A
C606        C745   1.436       .  S
O607       Cr614   2.031       .  S
O608       Cr614   1.965       .  S
O608        C609   1.256       .  A
C609        O610   1.269       .  A
C609        C764   1.439       .  S
O610       Cr615   2.032       .  S
O611       Cr615   1.973       .  S
O611        C612   1.257       .  A
C612        C737   1.436       .  S
Cr613       O616   1.772       .  S
Cr614       O616   1.769       .  S
Cr615       O616   1.764       .  S
O617       Cr635   2.017       .  S
O617        C625   1.268       .  A
O618       Cr635   1.953       .  S
O618        C619   1.249       .  A
C619        O620   1.270       .  A
C619        C736   1.436       .  S
O620       Cr636   2.041       .  S
O621       Cr636   1.985       .  S
O621        C622   1.259       .  A
C622        O623   1.264       .  A
C622        C793   1.441       .  S
O623       Cr637   2.011       .  S
O624       Cr637   1.969       .  S
O624        C625   1.257       .  A
C625        C725   1.436       .  S
O626       Cr635   1.974       .  S
O626        C634   1.258       .  A
O627       Cr635   2.034       .  S
O627        C628   1.270       .  A
C628        O629   1.256       .  A
C628        C724   1.441       .  S
O629       Cr636   1.965       .  S
O630       Cr636   2.031       .  S
O630        C631   1.274       .  A
C631        O632   1.258       .  A
C631        C732   1.436       .  S
O632       Cr637   1.959       .  S
O633       Cr637   2.017       .  S
O633        C634   1.266       .  A
C634        C768   1.438       .  S
Cr635       O638   1.764       .  S
Cr636       O638   1.769       .  S
Cr637       O638   1.772       .  S
O639       Cr657   2.017   1_554  S
O639        C647   1.268       .  A
O640       Cr657   1.954   1_554  S
O640        C641   1.249       .  A
C641        O642   1.270   1_554  A
C641        C720   1.436       .  S
O642       Cr658   2.041       .  S
O643       Cr658   1.986       .  S
O643        C644   1.259       .  A
C644        O645   1.263       .  A
C644        C808   1.441       .  S
O645       Cr659   2.011       .  S
O646       Cr659   1.968   1_554  S
O646        C647   1.257       .  A
C647        C729   1.436       .  S
O648       Cr657   1.974       .  S
O648        C656   1.258       .  A
O649       Cr657   2.033       .  S
O649        C650   1.269       .  A
C650        O651   1.256       .  A
C650        C716   1.441       .  S
O651       Cr658   1.966       .  S
O652       Cr658   2.031       .  S
O652        C653   1.274       .  A
C653        O654   1.258       .  A
C653        C728   1.436       .  S
O654       Cr659   1.960       .  S
O655       Cr659   2.017       .  S
O655        C656   1.266       .  A
C656        C756   1.437       .  S
Cr657       O660   1.764       .  S
Cr658       O660   1.769       .  S
Cr659       O660   1.772       .  S
O661       Cr679   1.969       .  S
O661        C669   1.257       .  A
O662       Cr679   2.011       .  S
O662        C663   1.263   1_655  A
C663        O664   1.260       .  A
C663        C929   1.442       .  S
O664       Cr680   1.987       .  S
O665       Cr680   2.042       .  S
O665        C666   1.270       .  A
C666        O667   1.249       .  A
C666        C721   1.437       .  S
O667       Cr681   1.953       .  S
O668       Cr681   2.017   1_655  S
O668        C669   1.268       .  A
C669        C709   1.436       .  S
O670       Cr679   2.017       .  S
O670        C678   1.266       .  A
O671       Cr679   1.960       .  S
O671        C672   1.258       .  A
C672        O673   1.274   1_655  A
C672        C708   1.437       .  S
O673       Cr680   2.032       .  S
O674       Cr680   1.966       .  S
O674        C675   1.256       .  A
C675        O676   1.269       .  A
C675        C717   1.440       .  S
O676       Cr681   2.032       .  S
O677       Cr681   1.973   1_655  S
O677        C678   1.257       .  A
C678        C744   1.436       .  S
Cr679       O682   1.772   1_655  S
Cr680       O682   1.769       .  S
Cr681       O682   1.764       .  S
O683       Cr701   1.969       .  S
O683        C691   1.257       .  A
O684       Cr701   2.011       .  S
O684        C685   1.263   1_655  A
C685        O686   1.260       .  A
C685        C924   1.442       .  S
O686       Cr702   1.987       .  S
O687       Cr702   2.041       .  S
O687        C688   1.270       .  A
C688        O689   1.249       .  A
C688        C713   1.437       .  S
O689       Cr703   1.953       .  S
O690       Cr703   2.017   1_655  S
O690        C691   1.268       .  A
C691        C705   1.436       .  S
O692       Cr701   2.016       .  S
O692        C700   1.265       .  A
O693       Cr701   1.960       .  S
O693        C694   1.258       .  A
C694        O695   1.274   1_655  A
C694        C712   1.437       .  S
O695       Cr702   2.032       .  S
O696       Cr702   1.965       .  S
O696        C697   1.256       .  A
C697        O698   1.269       .  A
C697        C733   1.440       .  S
O698       Cr703   2.032       .  S
O699       Cr703   1.973   1_655  S
O699        C700   1.257       .  A
C700        C740   1.436       .  S
Cr701       O704   1.772   1_655  S
Cr702       O704   1.769       .  S
Cr703       O704   1.764       .  S
C705        C706   1.207       .  T
C706        C707   1.415       .  S
C707        C708   1.207   1_556  T
C709        C710   1.207       .  T
C710        C711   1.415       .  S
C711        C712   1.207       .  T
C713        C714   1.209       .  T
C714        C715   1.419       .  S
C715        C716   1.210       .  T
C717        C718   1.210       .  T
C718        C719   1.419       .  S
C719        C720   1.209       .  T
C721        C722   1.210       .  T
C722        C723   1.420       .  S
C723        C724   1.210       .  T
C725        C726   1.207       .  T
C726        C727   1.415       .  S
C727        C728   1.207       .  T
C729        C730   1.206       .  T
C730        C731   1.414       .  S
C731        C732   1.207       .  T
C733        C734   1.210       .  T
C734        C735   1.419       .  S
C735        C736   1.209       .  T
C737        C738   1.206       .  T
C738        C739   1.413       .  S
C739        C740   1.206       .  T
C741        C742   1.206       .  T
C742        C743   1.413       .  S
C743        C744   1.206       .  T
C745        C746   1.207       .  T
C746        C747   1.414       .  S
C747        C748   1.207       .  T
C749        C750   1.207       .  T
C750        C751   1.414       .  S
C751        C752   1.207       .  T
C753        C754   1.207       .  T
C754        C755   1.414       .  S
C755        C756   1.207       .  T
C757        C758   1.210       .  T
C758        C759   1.419       .  S
C759        C760   1.209       .  T
C761        C762   1.209       .  T
C762        C763   1.418       .  S
C763        C764   1.209       .  T
C765        C766   1.207       .  T
C766        C767   1.414       .  S
C767        C768   1.207       .  T
C769        C770   1.210       .  T
C770        C771   1.419       .  S
C771        C772   1.209       .  T
C773        C774   1.207       .  T
C774        C775   1.414       .  S
C775        C776   1.207       .  T
C777        C778   1.207   1_556  T
C778        C779   1.415       .  S
C779        C780   1.207       .  T
C781        C782   1.209       .  T
C782        C783   1.418       .  S
C783        C784   1.209       .  T
C785        C786   1.207       .  T
C786        C787   1.414       .  S
C787        C788   1.207       .  T
C789        C790   1.206       .  T
C790        C791   1.414       .  S
C791        C792   1.206   1_554  T
C793        C794   1.209       .  T
C794        C795   1.418       .  S
C795        C796   1.209       .  T
C797        C798   1.209       .  T
C798        C799   1.419       .  S
C799        C800   1.210       .  T
C801        C802   1.209       .  T
C802        C803   1.419       .  S
C803        C804   1.210       .  T
C805        C806   1.209       .  T
C806        C807   1.418       .  S
C807        C808   1.209   1_554  T
C809        C810   1.209       .  T
C810        C811   1.419       .  S
C811        C812   1.210       .  T
C813        C814   1.207       .  T
C814        C815   1.415       .  S
C815        C816   1.207       .  T
C817        C818   1.207       .  T
C818        C819   1.414       .  S
C819        C820   1.207       .  T
C821        C822   1.210       .  T
C822        C823   1.419       .  S
C823        C824   1.209       .  T
C825        C826   1.209   1_556  T
C826        C827   1.418       .  S
C827        C828   1.209       .  T
C829        C830   1.206       .  T
C830        C831   1.413       .  S
C831        C832   1.206       .  T
C833        C834   1.209       .  T
C834        C835   1.418       .  S
C835        C836   1.209       .  T
C837        C838   1.206       .  T
C838        C839   1.413       .  S
C839        C840   1.206       .  T
C841        C842   1.207       .  T
C842        C843   1.415       .  S
C843        C844   1.207       .  T
C845        C846   1.207       .  T
C846        C847   1.415       .  S
C847        C848   1.207       .  T
C849        C850   1.206       .  T
C850        C851   1.413       .  S
C851        C852   1.206       .  T
C853        C854   1.210       .  T
C854        C855   1.419       .  S
C855        C856   1.209       .  T
C857        C858   1.209       .  T
C858        C859   1.419       .  S
C859        C860   1.210       .  T
C861        C862   1.206       .  T
C862        C863   1.413       .  S
C863        C864   1.206       .  T
C865        C866   1.210       .  T
C866        C867   1.419       .  S
C867        C868   1.209       .  T
C869        C870   1.210       .  T
C870        C871   1.419       .  S
C871        C872   1.209       .  T
C873        C874   1.207       .  T
C874        C875   1.415       .  S
C875        C876   1.207   1_556  T
C877        C878   1.207       .  T
C878        C879   1.414       .  S
C879        C880   1.207       .  T
C881        C882   1.206       .  T
C882        C883   1.414       .  S
C883        C884   1.207   1_565  T
C885        C886   1.207       .  T
C886        C887   1.414   1_565  S
C887        C888   1.207       .  T
C889        C890   1.209       .  T
C890        C891   1.418       .  S
C891        C892   1.209       .  T
C893        C894   1.210       .  T
C894        C895   1.419       .  S
C895        C896   1.209       .  T
C897        C898   1.209       .  T
C898        C899   1.419       .  S
C899        C900   1.210       .  T
C901        C902   1.209       .  T
C902        C903   1.417       .  S
C903        C904   1.209       .  T
C905        C906   1.209       .  T
C906        C907   1.418       .  S
C907        C908   1.210       .  T
C909        C910   1.206   1_554  T
C910        C911   1.414       .  S
C911        C912   1.206       .  T
C913        C914   1.206       .  T
C914        C915   1.413       .  S
C915        C916   1.206       .  T
C917        C918   1.210       .  T
C918        C919   1.419       .  S
C919        C920   1.209       .  T
C921        C922   1.210       .  T
C922        C923   1.419       .  S
C923        C924   1.210       .  T
C925        C926   1.206       .  T
C926        C927   1.413       .  S
C927        C928   1.206       .  T
C929        C930   1.210       .  T
C930        C931   1.419       .  S
C931        C932   1.210       .  T
C933        C934   1.206       .  T
C934        C935   1.413       .  S
C935        C936   1.206       .  T
C937        C938   1.207       .  T
C938        C939   1.414       .  S
C939        C940   1.207       .  T
C941        C942   1.207       .  T
C942        C943   1.414       .  S
C943        C944   1.207   1_554  T
C945        C946   1.207       .  T
C946        C947   1.414       .  S
C947        C948   1.207       .  T
C949        C950   1.210       .  T
C950        C951   1.420       .  S
C951        C952   1.210       .  T
C953        C954   1.210       .  T
C954        C955   1.419       .  S
C955        C956   1.209       .  T
C957        C958   1.206       .  T
C958        C959   1.413       .  S
C959        C960   1.206       .  T
C961        C962   1.210       .  T
C962        C963   1.419       .  S
C963        C964   1.210       .  T
C965        C966   1.207       .  T
C966        C967   1.415       .  S
C967        C968   1.207       .  T
C969        C970   1.207       .  T
C970        C971   1.415       .  S
C971        C972   1.207       .  T
C973        C974   1.209       .  T
C974        C975   1.419       .  S
C975        C976   1.210       .  T
C977        C978   1.209       .  T
C978        C979   1.417       .  S
C979        C980   1.209       .  T
C981        C982   1.209       .  T
C982        C983   1.417       .  S
C983        C984   1.209   1_554  T
C985        C986   1.207       .  T
C986        C987   1.414   1_545  S
C987        C988   1.207       .  T
C989        C990   1.207       .  T
C990        C991   1.414   1_565  S
C991        C992   1.207       .  T
C993        C994   1.209       .  T
C994        C995   1.418       .  S
C995        C996   1.209       .  T
C997        C998   1.209       .  T
C998        C999   1.419       .  S
C999       C1000   1.210       .  T
C1001      C1002   1.210       .  T
C1002      C1003   1.419       .  S
C1003      C1004   1.209       .  T
C1005      C1006   1.209       .  T
C1006      C1007   1.418       .  S
C1007      C1008   1.209       .  T
C1009      C1010   1.210       .  T
C1010      C1011   1.419       .  S
C1011      C1012   1.209       .  T
C1013      C1014   1.207       .  T
C1014      C1015   1.415       .  S
C1015      C1016   1.207       .  T
C1017      C1018   1.207       .  T
C1018      C1019   1.415       .  S
C1019      C1020   1.207   1_554  T
C1021      C1022   1.210       .  T
C1022      C1023   1.419       .  S
C1023      C1024   1.209       .  T
C1025      C1026   1.209       .  T
C1026      C1027   1.418       .  S
C1027      C1028   1.209       .  T
C1029      C1030   1.207       .  T
C1030      C1031   1.415       .  S
C1031      C1032   1.207       .  T
C1033      C1034   1.209       .  T
C1034      C1035   1.418       .  S
C1035      C1036   1.209       .  T
C1037      C1038   1.207       .  T
C1038      C1039   1.415       .  S
C1039      C1040   1.207       .  T
C1041      C1042   1.207       .  T
C1042      C1043   1.414       .  S
C1043      C1044   1.207   1_556  T
C1045      C1046   1.207       .  T
C1046      C1047   1.414       .  S
C1047      C1048   1.207       .  T
C1049      C1050   1.210   1_556  T
C1050      C1051   1.418       .  S
C1051      C1052   1.210       .  T
C1053      C1054   1.206       .  T
C1054      C1055   1.414       .  S
C1055      C1056   1.207       .  T
C1057      C1058   1.209       .  T
C1058      C1059   1.419       .  S
C1059      C1060   1.210       .  T
C1061      C1062   1.210       .  T
C1062      C1063   1.420       .  S
C1063      C1064   1.210       .  T
C1065      C1066   1.209       .  T
C1066      C1067   1.418       .  S
C1067      C1068   1.209       .  T
C1069      C1070   1.206       .  T
C1070      C1071   1.413       .  S
C1071      C1072   1.206       .  T
C1073      C1074   1.210       .  T
C1074      C1075   1.418       .  S
C1075      C1076   1.209       .  T
C1077      C1078   1.207       .  T
C1078      C1079   1.414       .  S
C1079      C1080   1.207       .  T
C1081      C1082   1.207       .  T
C1082      C1083   1.414       .  S
C1083      C1084   1.207       .  T
C1085      C1086   1.210       .  T
C1086      C1087   1.420       .  S
C1087      C1088   1.210       .  T
