geometry optimzed in LAMMPS
_audit_creation_date              2020-12-01 
_audit_creation_method            'lammps2cif' 
_symmetry_space_group_name_H-M    'P1' 
_symmetry_Int_Tables_number       1 
_symmetry_cell_setting            triclinic 
loop_ 
_symmetry_equiv_pos_as_xyz 
  x,y,z 
_cell_length_a                    36.96849142 
_cell_length_b                    36.90320710493719 
_cell_length_c                    39.88848524804297 
_cell_angle_alpha                 90.85502512256551 
_cell_angle_beta                  89.44982031280504 
_cell_angle_gamma                 120.15569478176994 
loop_ 
_atom_site_label 
_atom_site_type_symbol 
_atom_site_fract_x 
_atom_site_fract_y 
_atom_site_fract_z 
_atom_site_charge 
O1          O  0.44744239  0.87524053  0.17486044    -0.86800
O2          O  0.51739160  0.93239051  0.13579865    -0.83900
C3          C  0.53144413  0.93844800  0.16449602     0.96600
O4          O  0.53825554  0.91073923  0.17594273    -0.83900
O5          O  0.52751823  0.83022357  0.18678276    -0.86600
C6          C  0.49774805  0.79370886  0.19474405     1.01100
O7          O  0.46537322  0.77589318  0.17650330    -0.79300
O8          O  0.41086899  0.80567466  0.17011501    -0.79500
C9          C  0.42813190  0.83913794  0.18812436     1.01100
O10         O  0.40591591  0.84370562  0.11683177    -0.86800
O11         O  0.48361286  0.88383815  0.08180376    -0.83900
C12         C  0.52166882  0.89481486  0.07559265     0.96600
O13         O  0.54693528  0.89682603  0.09893143    -0.83900
O14         O  0.53939103  0.82236098  0.11508877    -0.86500
C15         C  0.51172663  0.79075084  0.09921672     1.01100
O16         O  0.47316201  0.77591233  0.10463386    -0.79400
O17         O  0.41357253  0.79457670  0.09575785    -0.79500
C18         C  0.39368647  0.81378804  0.09694939     1.01100
Cr19       Cr  0.46454300  0.88106198  0.12786988     1.93700
Cr20       Cr  0.53485215  0.86451017  0.14393531     1.93200
Cr21       Cr  0.44312507  0.79151107  0.13681380     1.39100
O22         O  0.48124696  0.84468334  0.13611670    -1.24600
O23         O  0.46999474  0.58627638  0.17790488    -0.86800
O24         O  0.45651448  0.51764679  0.13616884    -0.83900
C25         C  0.44642487  0.50193797  0.16416685     0.96600
O26         O  0.41144710  0.49512427  0.17524810    -0.83900
O27         O  0.34083403  0.50616991  0.18533788    -0.86600
C28         C  0.33532946  0.53625347  0.19542233     1.01100
O29         O  0.35405755  0.57094098  0.18020101    -0.79300
O30         O  0.43968389  0.62469920  0.17365473    -0.79500
C31         C  0.45246373  0.60494798  0.19148143     1.01100
O32         O  0.48321941  0.63085538  0.12072403    -0.86800
O33         O  0.44643268  0.55452645  0.08313961    -0.83900
C34         C  0.41888898  0.51690091  0.07551731     0.96600
O35         O  0.39419724  0.49088249  0.09796193    -0.83900
O36         O  0.32783272  0.49977937  0.11299682    -0.86500
C37         C  0.32476583  0.52912139  0.09994579     1.01100
O38         O  0.34776531  0.56693316  0.10857326    -0.79400
O39         O  0.42710323  0.62417315  0.10005712    -0.79500
C40         C  0.46626112  0.64311454  0.10078603     1.01100
Cr41       Cr  0.46042725  0.57150314  0.13009056     1.93700
Cr42       Cr  0.37143320  0.50130239  0.14291530     1.93200
Cr43       Cr  0.39323166  0.59433631  0.14068388     1.39100
O44         O  0.40690000  0.55529469  0.13773752    -1.24600
O45         O  0.15209859  0.55714025  0.16667477    -0.86800
O46         O  0.09814623  0.57738121  0.13063841    -0.83900
C47         C  0.09251140  0.58030294  0.16073830     0.96600
O48         O  0.11980507  0.61438717  0.17426789    -0.83900
O49         O  0.20062303  0.68613185  0.18616786    -0.86600
C50         C  0.23562494  0.69065147  0.19560873     1.01100
O51         O  0.25192681  0.67302561  0.17880844    -0.79300
O52         O  0.22140799  0.58835968  0.16575045    -0.79500
C53         C  0.18650210  0.56849398  0.18117850     1.01100
O54         O  0.18331673  0.55046997  0.10731733    -0.86800
O55         O  0.14663841  0.59304303  0.07653476    -0.83900
C56         C  0.13634744  0.62090793  0.07295570     0.96600
O57         O  0.13389588  0.64206054  0.09815599    -0.83900
O58         O  0.20943028  0.70602775  0.11499528    -0.86500
C59         C  0.24229638  0.70994605  0.10122535     1.01100
O60         O  0.25670508  0.68641084  0.10805868    -0.79400
O61         O  0.23642368  0.60880354  0.09334653    -0.79500
C62         C  0.21601633  0.56968808  0.09084992     1.01100
Cr63       Cr  0.14766663  0.57290304  0.12108987     1.93700
Cr64       Cr  0.16626643  0.65933914  0.14317873     1.93200
Cr65       Cr  0.23774940  0.63799266  0.13645358     1.39100
O66         O  0.18515927  0.62480312  0.13349945    -1.24600
O67         O  0.46901511  0.86932888  0.34025663    -0.86800
O68         O  0.45553799  0.92926953  0.37614742    -0.83900
C69         C  0.45178124  0.93395707  0.34616633     0.96600
O70         O  0.41690903  0.90757611  0.33372966    -0.83900
O71         O  0.34384074  0.82894328  0.32266531    -0.86600
C72         C  0.33600869  0.79198229  0.31463318     1.01100
O73         O  0.35019755  0.77400496  0.33277536    -0.79300
O74         O  0.43346987  0.79972341  0.34387012    -0.79500
C75         C  0.45432495  0.83317242  0.32690170     1.01100
O76         O  0.47382122  0.83928080  0.39974321    -0.86800
O77         O  0.43769025  0.88291001  0.43108720    -0.83900
C78         C  0.41173336  0.89569469  0.43537667     0.96600
O79         O  0.39040089  0.89797890  0.41063339    -0.83900
O80         O  0.32227104  0.82395790  0.39304298    -0.86500
C81         C  0.31507528  0.79080232  0.40773738     1.01100
O82         O  0.33786598  0.77463190  0.40368575    -0.79400
O83         O  0.41481516  0.79062966  0.41744411    -0.79500
C84         C  0.45396450  0.80973154  0.41904785     1.01100
Cr85       Cr  0.45550529  0.87769979  0.38608592     1.93700
Cr86       Cr  0.37106676  0.86417299  0.36548025     1.93200
Cr87       Cr  0.38554058  0.78858053  0.37446785     1.39100
O88         O  0.40256994  0.84233402  0.37546263    -1.24600
O89         O  0.42985203  0.55852213  0.34001569    -0.86800
O90         O  0.50277133  0.57308751  0.37360257    -0.83900
C91         C  0.51419860  0.58073790  0.34405739     0.96600
O92         O  0.52398592  0.61692148  0.33403725    -0.83900
O93         O  0.51941872  0.69099426  0.32764415    -0.86600
C94         C  0.48904359  0.69374770  0.31544030     1.01100
O95         O  0.45348125  0.67439676  0.32952924    -0.79300
O96         O  0.39462959  0.59228024  0.34389626    -0.79500
C97         C  0.40746308  0.57152223  0.32689399     1.01100
O98         O  0.39501200  0.55512443  0.40091232    -0.86800
O99         O  0.47398868  0.59017896  0.43098298    -0.83900
C100        C  0.51278493  0.61540325  0.43552397     0.96600
O101        O  0.53689340  0.63669570  0.41105402    -0.83900
O102        O  0.52844191  0.70326542  0.40095434    -0.86500
C103        C  0.50016870  0.71000647  0.41206321     1.01100
O104        O  0.46365718  0.69172313  0.40023897    -0.79400
O105        O  0.40402589  0.61518677  0.41581416    -0.79500
C106        C  0.38422867  0.57606099  0.41855332     1.01100
Cr107      Cr  0.45150225  0.57295584  0.38568522     1.93700
Cr108      Cr  0.52363773  0.65932292  0.36842156     1.93200
Cr109      Cr  0.43176344  0.64216875  0.37243851     1.39100
O110        O  0.46920643  0.62607246  0.37557202    -1.24600
O111        O  0.13775853  0.57802913  0.33254015    -0.86800
O112        O  0.08898340  0.50778528  0.37582588    -0.83900
C113        C  0.08224839  0.49629036  0.34639562     0.96600
O114        O  0.11000578  0.49002843  0.33335615    -0.83900
O115        O  0.19277499  0.50375773  0.32116255    -0.86600
C116        C  0.22739076  0.53469362  0.31082114     1.01100
O117        O  0.24237585  0.56967006  0.32614290    -0.79300
O118        O  0.20645628  0.62008248  0.33485152    -0.79500
C119        C  0.17299183  0.59888859  0.31794878     1.01100
O120        O  0.17012094  0.62530526  0.38929782    -0.86800
O121        O  0.13795996  0.55009047  0.42715075    -0.83900
C122        C  0.13127559  0.51358445  0.43429587     0.96600
O123        O  0.12910241  0.48739619  0.41117041    -0.83900
O124        O  0.20384443  0.50010102  0.39338724    -0.86500
C125        C  0.23525422  0.53128888  0.40667794     1.01100
O126        O  0.24815202  0.56832703  0.39752757    -0.79400
O127        O  0.22291386  0.62250295  0.40731062    -0.79500
C128        C  0.20203622  0.64066206  0.40693113     1.01100
Cr129      Cr  0.13599726  0.56474317  0.38052699     1.93700
Cr130      Cr  0.15887450  0.49815118  0.36465094     1.93200
Cr131      Cr  0.22666638  0.59264194  0.36639047     1.39100
O132        O  0.17514753  0.55170934  0.37063044    -1.24600
O133        O  0.59541836  0.46029001  0.32173169    -0.86800
O134        O  0.52508578  0.44282663  0.36222894    -0.83900
C135        C  0.51124759  0.43385082  0.33344927     0.96600
O136        O  0.50581970  0.39949445  0.32176396    -0.83900
O137        O  0.52025514  0.33191734  0.30963216    -0.86600
C138        C  0.55130930  0.32805523  0.29997126     1.01100
O139        O  0.58525965  0.34663254  0.31623075    -0.79300
O140        O  0.63588376  0.43195122  0.32400106    -0.79500
C141        C  0.61643151  0.44603898  0.30715505     1.01100
O142        O  0.63934946  0.47377744  0.37882140    -0.86800
O143        O  0.56281192  0.43267723  0.41516351    -0.83900
C144        C  0.52584109  0.40340181  0.42193995     0.96600
O145        O  0.50065895  0.37885236  0.39875315    -0.83900
O146        O  0.51292370  0.31446356  0.38073599    -0.86500
C147        C  0.54277114  0.31217225  0.39380970     1.01100
O148        O  0.58051871  0.33810199  0.38741643    -0.79400
O149        O  0.63502342  0.41806059  0.39792063    -0.79500
C150        C  0.65276225  0.45719748  0.39801078     1.01100
Cr151      Cr  0.57993463  0.44879352  0.36884860     1.93700
Cr152      Cr  0.51294191  0.35913197  0.35296556     1.93200
Cr153      Cr  0.60672597  0.38476173  0.35648593     1.39100
O154        O  0.56620118  0.39611255  0.35953545    -1.24600
O155        O  0.84232748  0.39082665  0.33606151    -0.86800
O156        O  0.90691542  0.46454634  0.31982001    -0.83900
C157        C  0.93527022  0.50173960  0.32003772     0.96600
O158        O  0.92724696  0.52874545  0.33294165    -0.83900
O159        O  0.84448398  0.51118636  0.30658799    -0.86600
C160        C  0.80448332  0.49128433  0.30371348     1.01100
O161        O  0.78237728  0.46942904  0.32841037    -0.79300
O162        O  0.79267157  0.40299854  0.32017610    -0.79500
C163        C  0.81705348  0.38926804  0.31403201     1.01100
O164        O  0.85655403  0.41657849  0.40623607    -0.86800
O165        O  0.92309161  0.49014822  0.39190729    -0.83900
C166        C  0.91520863  0.51348462  0.41085122     0.96600
O167        O  0.89506665  0.52977565  0.39912673    -0.83900
O168        O  0.82395256  0.52322292  0.37491380    -0.86500
C169        C  0.80147171  0.50033133  0.39882834     1.01100
O170        O  0.79433013  0.46336395  0.40105097    -0.79400
O171        O  0.79223752  0.38837578  0.38896716    -0.79500
C172        C  0.81958906  0.38731216  0.40702637     1.01100
Cr173      Cr  0.88043251  0.44226676  0.36303434     1.93700
Cr174      Cr  0.87156442  0.51983471  0.35287883     1.93200
Cr175      Cr  0.79384177  0.43336424  0.36021582     1.39100
O176        O  0.84863113  0.46490054  0.35836501    -1.24600
O177        O  0.57482079  0.13033928  0.32393062    -0.86800
O178        O  0.59479431  0.08050853  0.36406216    -0.83900
C179        C  0.60401248  0.07406799  0.33559785     0.96600
O180        O  0.63810976  0.10264349  0.32353572    -0.83900
O181        O  0.70646407  0.18481694  0.31078180    -0.86600
C182        C  0.70737748  0.21705632  0.29830349     1.01100
O183        O  0.68643646  0.23176561  0.31222326    -0.79300
O184        O  0.60203275  0.19886749  0.32657974    -0.79500
C185        C  0.58865582  0.16524021  0.30944288     1.01100
O186        O  0.56625328  0.16637264  0.38240548    -0.86800
O187        O  0.60801382  0.13177474  0.41693749    -0.83900
C188        C  0.63647583  0.12303064  0.42314978     0.96600
O189        O  0.65986049  0.12104567  0.39965390    -0.83900
O190        O  0.72339791  0.19759720  0.38235645    -0.86500
C191        C  0.72739699  0.23223703  0.39196781     1.01100
O192        O  0.70346258  0.24498472  0.38219489    -0.79400
O193        O  0.62422961  0.21983618  0.39757667    -0.79500
C194        C  0.58504808  0.19969935  0.39878589     1.01100
Cr195      Cr  0.58961551  0.13016466  0.37103763     1.93700
Cr196      Cr  0.67893750  0.15184596  0.35416511     1.93200
Cr197      Cr  0.65315994  0.22031037  0.35480434     1.39100
O198        O  0.64203068  0.16853536  0.36014699    -1.24600
O199        O  0.57555777  0.43328839  0.15381861    -0.86800
O200        O  0.59456327  0.50711128  0.11748839    -0.83900
C201        C  0.59830375  0.51652931  0.14753360     0.96600
O202        O  0.63263303  0.52406245  0.16016770    -0.83900
O203        O  0.70247918  0.51479475  0.17252662    -0.86600
C204        C  0.70723387  0.48462271  0.18217021     1.01100
O205        O  0.69085840  0.45069368  0.16523651    -0.79300
O206        O  0.60684946  0.39540221  0.15164052    -0.79500
C207        C  0.58805790  0.41098458  0.16798986     1.01100
O208        O  0.56963037  0.39524299  0.09406454    -0.86800
O209        O  0.61139390  0.47486964  0.06278517    -0.83900
C210        C  0.63956173  0.51307842  0.05884650     0.96600
O211        O  0.66073463  0.53677554  0.08389884    -0.83900
O212        O  0.72537271  0.52605638  0.10222667    -0.86500
C213        C  0.73072099  0.49746190  0.08928442     1.01100
O214        O  0.70608372  0.45913914  0.09466222    -0.79400
O215        O  0.62797843  0.40031764  0.07983377    -0.79500
C216        C  0.58881018  0.38099670  0.07817473     1.01100
Cr217      Cr  0.59126692  0.45344019  0.10777828     1.93700
Cr218      Cr  0.67741561  0.52218871  0.12918973     1.93200
Cr219      Cr  0.65680178  0.42922023  0.12270103     1.39100
O220        O  0.64324819  0.46847021  0.11962171    -1.24600
O221        O  0.60856338  0.14221850  0.15814508    -0.86800
O222        O  0.53433854  0.08517663  0.12325911    -0.83900
C223        C  0.52426969  0.08120400  0.15317142     0.96600
O224        O  0.51717559  0.10908825  0.16503106    -0.83900
O225        O  0.52628057  0.18968813  0.17503071    -0.86600
C226        C  0.55630822  0.22554276  0.18389762     1.01100
O227        O  0.59022585  0.24175030  0.16732660    -0.79300
O228        O  0.64538687  0.21180283  0.15637531    -0.79500
C229        C  0.63073231  0.17757338  0.17234115     1.01100
O230        O  0.64533373  0.17128511  0.09809629    -0.86800
O231        O  0.56492488  0.13190052  0.06750544    -0.83900
C232        C  0.52683092  0.12202412  0.06379987     0.96600
O233        O  0.50350952  0.11934037  0.08900660    -0.83900
O234        O  0.51529874  0.19597994  0.10349565    -0.86500
C235        C  0.54422080  0.22850282  0.08951779     1.01100
O236        O  0.58218412  0.24334588  0.09662158    -0.79400
O237        O  0.64005424  0.22400571  0.08370319    -0.79500
C238        C  0.65868569  0.20363837  0.08144647     1.01100
Cr239      Cr  0.58738673  0.13545316  0.11244912     1.93700
Cr240      Cr  0.51894358  0.15401387  0.13287981     1.93200
Cr241      Cr  0.61170553  0.22614315  0.12610733     1.39100
O242        O  0.57253290  0.17299321  0.12380379    -1.24600
O243        O  0.89536813  0.45250552  0.17189789    -0.86800
O244        O  0.95363343  0.44161065  0.13271474    -0.83900
C245        C  0.95556767  0.42855298  0.16057593     0.96600
O246        O  0.92638915  0.39244811  0.16788905    -0.83900
O247        O  0.84516181  0.32318201  0.17165320    -0.86600
C248        C  0.81051225  0.31951936  0.18184159     1.01100
O249        O  0.79620344  0.34014581  0.16744271    -0.79300
O250        O  0.82852118  0.42590826  0.16101635    -0.79500
C251        C  0.85773300  0.43574034  0.18198569     1.01100
O252        O  0.86905220  0.47005120  0.11184299    -0.86800
O253        O  0.91157885  0.43617844  0.07663888    -0.83900
C254        C  0.92019339  0.40811713  0.06752531     0.96600
O255        O  0.91994434  0.38168675  0.08882817    -0.83900
O256        O  0.84304561  0.31439722  0.09872997    -0.86500
C257        C  0.80997059  0.31080307  0.08650243     1.01100
O258        O  0.79530076  0.33347359  0.09612142    -0.79400
O259        O  0.82101123  0.41416447  0.08807879    -0.79500
C260        C  0.84011605  0.45333808  0.09100657     1.01100
Cr261      Cr  0.90471559  0.44657395  0.12371966     1.93700
Cr262      Cr  0.88341610  0.35591135  0.13172590     1.93200
Cr263      Cr  0.81364145  0.37934185  0.12831000     1.39100
O264        O  0.86624655  0.39244888  0.12748545    -1.24600
O265        O  0.44520410  0.81590069  0.66761341    -0.86800
O266        O  0.36085968  0.78426162  0.67925359    -0.83900
C267        C  0.34324657  0.80024630  0.69637101     0.96600
O268        O  0.34722532  0.83524875  0.68737325    -0.83900
O269        O  0.41626229  0.91666742  0.67683602    -0.86600
C270        C  0.45049514  0.94530128  0.66527086     1.01100
O271        O  0.45947605  0.94030188  0.63630006    -0.79300
O272        O  0.47654056  0.88505618  0.67236934    -0.79500
C273        C  0.46063969  0.84913317  0.68570875     1.01100
O274        O  0.42620153  0.80271859  0.59480345    -0.86800
O275        O  0.34781172  0.78070447  0.60828225    -0.83900
C276        C  0.32430248  0.79534967  0.60200164     0.96600
O277        O  0.32875975  0.82821981  0.61606503    -0.83900
O278        O  0.39380024  0.90403529  0.60058638    -0.86500
C279        C  0.41631816  0.90243369  0.57612634     1.01100
O280        O  0.44438142  0.89263256  0.58085270    -0.79400
O281        O  0.48436840  0.85348366  0.61228066    -0.79500
C282        C  0.46531499  0.82152883  0.59447196     1.01100
Cr283      Cr  0.39609496  0.79950538  0.63755570     1.93700
Cr284      Cr  0.37444711  0.87056035  0.64494271     1.93200
Cr285      Cr  0.46245820  0.89001013  0.62610572     1.39100
O286        O  0.40963793  0.85235419  0.63618078    -1.24600
O287        O  0.41113439  0.58755217  0.67294175    -0.86800
O288        O  0.46258880  0.67232184  0.68479287    -0.83900
C289        C  0.49782532  0.69362103  0.69885195     0.96600
O290        O  0.52940937  0.69197515  0.68710267    -0.83900
O291        O  0.54301392  0.62317718  0.67673855    -0.86600
C292        C  0.53664457  0.58801971  0.66617035     1.01100
O293        O  0.52128908  0.57685620  0.63786168    -0.79300
O294        O  0.45033199  0.55851806  0.67658369    -0.79500
C295        C  0.43105521  0.57491575  0.69062800     1.01100
O296        O  0.41572606  0.60705949  0.60045333    -0.86800
O297        O  0.46864609  0.68601048  0.61451286    -0.83900
C298        C  0.50568813  0.70913651  0.60464041     0.96600
O299        O  0.53566162  0.70514296  0.61498801    -0.83900
O300        O  0.54786456  0.64048380  0.59984906    -0.86500
C301        C  0.52245219  0.61606121  0.57679805     1.01100
O302        O  0.48516013  0.58795136  0.58367345    -0.79400
O303        O  0.40797071  0.54889772  0.61753998    -0.79500
C304        C  0.39637412  0.56790715  0.59898529     1.01100
Cr305      Cr  0.44189612  0.63713430  0.64315584     1.93700
Cr306      Cr  0.53566285  0.66216311  0.64464817     1.93200
Cr307      Cr  0.46704108  0.57177105  0.62965736     1.39100
O308        O  0.48199099  0.62509697  0.63920089    -1.24600
O309        O  0.22478897  0.63066354  0.67229479    -0.86800
O310        O  0.25943357  0.57981170  0.68096630    -0.83900
C311        C  0.24405575  0.54589869  0.69721615     0.96600
O312        O  0.20894243  0.51469932  0.68770511    -0.83900
O313        O  0.12653779  0.50039060  0.67721770    -0.86600
C314        C  0.09767136  0.50542125  0.66578269     1.01100
O315        O  0.10276984  0.51940412  0.63716923    -0.79300
O316        O  0.15587882  0.59104884  0.67647724    -0.79500
C317        C  0.19170224  0.61121762  0.69010752     1.01100
O318        O  0.23787502  0.62740110  0.59881873    -0.86800
O319        O  0.26243534  0.57236725  0.60921681    -0.83900
C320        C  0.24876211  0.53420911  0.60220683     0.96600
O321        O  0.21645907  0.50514468  0.61592691    -0.83900
O322        O  0.14042099  0.49307543  0.60006204    -0.86500
C323        C  0.14107699  0.51769743  0.57681385     1.01100
O324        O  0.15029612  0.55529504  0.58327234    -0.79400
O325        O  0.18691269  0.63300003  0.61840135    -0.79500
C326        C  0.21726219  0.64589693  0.59912224     1.01100
Cr327      Cr  0.24270184  0.60013131  0.64037985     1.93700
Cr328      Cr  0.17338407  0.50655533  0.64510686     1.93200
Cr329      Cr  0.15185902  0.57392146  0.62945599     1.39100
O330        O  0.19040215  0.55986779  0.63825939    -1.24600
O331        O  0.40616964  0.80732152  0.84068468    -0.86800
O332        O  0.46267444  0.77921237  0.83374481    -0.83900
C333        C  0.49532940  0.79676881  0.81562173     0.96600
O334        O  0.52410201  0.83404077  0.82292353    -0.83900
O335        O  0.53216862  0.91367322  0.83290043    -0.86600
C336        C  0.52435559  0.94112961  0.84431196     1.01100
O337        O  0.51303872  0.93686833  0.87386944    -0.79300
O338        O  0.44111197  0.87711538  0.83730253    -0.79500
C339        C  0.42036813  0.84095628  0.82373683     1.01100
O340        O  0.41064745  0.79959679  0.91514783    -0.86800
O341        O  0.47070529  0.78242879  0.90542039    -0.83900
C342        C  0.50929877  0.79794703  0.91056307     0.96600
O343        O  0.53669580  0.82890767  0.89419055    -0.83900
O344        O  0.54420363  0.90349258  0.90978939    -0.86500
C345        C  0.51953314  0.90071427  0.93415497     1.01100
O346        O  0.48150360  0.89034230  0.92903976    -0.79400
O347        O  0.40262485  0.84874092  0.89614008    -0.79500
C348        C  0.39135289  0.81938208  0.91578804     1.01100
Cr349      Cr  0.43989283  0.79585543  0.87358708     1.93700
Cr350      Cr  0.53109684  0.86958638  0.86522388     1.93200
Cr351      Cr  0.46063705  0.88563092  0.88348264     1.39100
O352        O  0.47745463  0.84929773  0.87401722    -1.24600
O353        O  0.45116677  0.63940283  0.84274122    -0.86800
O354        O  0.36633474  0.58358798  0.83154521    -0.83900
C355        C  0.34854511  0.54958794  0.81465856     0.96600
O356        O  0.35377708  0.51929548  0.82349976    -0.83900
O357        O  0.42592910  0.51108833  0.83154610    -0.86600
C358        C  0.46101520  0.51866674  0.84272218     1.01100
O359        O  0.46682155  0.52840253  0.87270525    -0.79300
O360        O  0.48346884  0.60248161  0.83841054    -0.79500
C361        C  0.47029127  0.62486748  0.82545315     1.01100
O362        O  0.43325909  0.63238987  0.91566933    -0.86800
O363        O  0.35570208  0.57412894  0.90283569    -0.83900
C364        C  0.33366675  0.53609640  0.91046117     0.96600
O365        O  0.33759358  0.50752870  0.89584516    -0.83900
O366        O  0.40287811  0.49753090  0.90888202    -0.86500
C367        C  0.42480869  0.52142575  0.93362697     1.01100
O368        O  0.45222076  0.55971802  0.92922190    -0.79400
O369        O  0.49141508  0.63922810  0.89874900    -0.79500
C370        C  0.47240082  0.65150147  0.91706039     1.01100
Cr371      Cr  0.40281220  0.60466749  0.87305020     1.93700
Cr372      Cr  0.38284533  0.51213659  0.86509110     1.93200
Cr373      Cr  0.46986118  0.58150886  0.88410044     1.39100
O374        O  0.41717984  0.56592378  0.87413225    -1.24600
O375        O  0.23602467  0.59742194  0.84231356    -0.86800
O376        O  0.26277915  0.68137768  0.83120262    -0.83900
C377        C  0.24557394  0.69765410  0.81457273     0.96600
O378        O  0.20971247  0.69140508  0.82373253    -0.83900
O379        O  0.13069904  0.61814117  0.83267439    -0.86600
C380        C  0.10375579  0.58290224  0.84412942     1.01100
O381        O  0.10789637  0.57716639  0.87392848    -0.79300
O382        O  0.16653493  0.56206296  0.83953657    -0.79500
C383        C  0.20216375  0.57677073  0.82570587     1.01100
O384        O  0.24751066  0.61702246  0.91527833    -0.86800
O385        O  0.26374507  0.69365625  0.90249410    -0.83900
C386        C  0.24645975  0.71467405  0.91014662     0.96600
O387        O  0.21366711  0.70913816  0.89571303    -0.83900
O388        O  0.13897789  0.64238875  0.90889078    -0.86500
C389        C  0.14188257  0.62207484  0.93380854     1.01100
O390        O  0.15442684  0.59584322  0.93001302    -0.79400
O391        O  0.19669297  0.55773609  0.89940497    -0.79500
C392        C  0.22809259  0.57786572  0.91711816     1.01100
Cr393      Cr  0.24858176  0.64604669  0.87272184     1.93700
Cr394      Cr  0.17402815  0.66255829  0.86544832     1.93200
Cr395      Cr  0.15909125  0.57695864  0.88508363     1.39100
O396        O  0.19498680  0.62982052  0.87439932    -1.24600
O397        O  0.65211810  0.43002589  0.65278980    -0.86800
O398        O  0.59484100  0.34664790  0.66615133    -0.83900
C399        C  0.56091910  0.32944845  0.68277117     0.96600
O400        O  0.53057838  0.33411971  0.67330064    -0.83900
O401        O  0.52408983  0.40647575  0.66524979    -0.86600
C402        C  0.53264925  0.44186432  0.65436344     1.01100
O403        O  0.54243419  0.44792435  0.62442964    -0.79300
O404        O  0.61671098  0.46381346  0.65738378    -0.79500
C405        C  0.63939755  0.45080532  0.67001182     1.01100
O406        O  0.64166209  0.40863087  0.58040488    -0.86800
O407        O  0.58274846  0.33177246  0.59530620    -0.83900
C408        C  0.54459978  0.31035783  0.58770468     0.96600
O409        O  0.51701938  0.31638541  0.60138121    -0.83900
O410        O  0.50878583  0.38294502  0.58829506    -0.86500
C411        C  0.53232708  0.40406223  0.56339677     1.01100
O412        O  0.57092718  0.43058444  0.56738520    -0.79400
O413        O  0.65105850  0.46830749  0.59657554    -0.79500
C414        C  0.66175174  0.44778532  0.57836296     1.01100
Cr415      Cr  0.61517643  0.38052916  0.62374649     1.93700
Cr416      Cr  0.52354798  0.36279049  0.63178882     1.93200
Cr417      Cr  0.59419283  0.44897752  0.61214982     1.39100
O418        O  0.57740033  0.39612404  0.62257835    -1.24600
O419        O  0.82809244  0.38994313  0.65245160    -0.86800
O420        O  0.79880422  0.44530015  0.66107024    -0.83900
C421        C  0.81527301  0.48012382  0.67683182     0.96600
O422        O  0.85028627  0.51031760  0.66631596    -0.83900
O423        O  0.93044993  0.51967692  0.65736136    -0.86600
C424        C  0.95790042  0.51146048  0.64694210     1.01100
O425        O  0.95384720  0.49960739  0.61746662    -0.79300
O426        O  0.89725432  0.42849463  0.65603021    -0.79500
C427        C  0.86172910  0.40606826  0.66954783     1.01100
O428        O  0.81698125  0.39238884  0.57875676    -0.86800
O429        O  0.79575549  0.44993714  0.58930168    -0.83900
C430        C  0.81069488  0.48753642  0.58079446     0.96600
O431        O  0.84376940  0.51703816  0.59367279    -0.83900
O432        O  0.91910333  0.52599952  0.57870805    -0.86500
C433        C  0.91746263  0.50008684  0.55545414     1.01100
O434        O  0.90766152  0.46271740  0.56254047    -0.79400
O435        O  0.86772147  0.38635674  0.59739164    -0.79500
C436        C  0.83731912  0.37359177  0.57834412     1.01100
Cr437      Cr  0.81370811  0.42201741  0.62030227     1.93700
Cr438      Cr  0.88562040  0.51515607  0.62387095     1.93200
Cr439      Cr  0.90406313  0.44523147  0.60901979     1.39100
O440        O  0.86663858  0.46101795  0.61758112    -1.24600
O441        O  0.61741963  0.21917388  0.66031274    -0.86800
O442        O  0.70158859  0.24619003  0.66568549    -0.83900
C443        C  0.71524488  0.22781151  0.68392316     0.96600
O444        O  0.70645618  0.19057031  0.67626550    -0.83900
O445        O  0.63517132  0.11217988  0.66594337    -0.86600
C446        C  0.59999254  0.08544692  0.65436868     1.01100
O447        O  0.59450218  0.09016171  0.62477227    -0.79300
O448        O  0.58240217  0.14939402  0.66351082    -0.79500
C449        C  0.59815404  0.18548025  0.67727089     1.01100
O450        O  0.62907315  0.22772275  0.58581590    -0.86800
O451        O  0.70648863  0.24371812  0.59378579    -0.83900
C452        C  0.72938080  0.22796705  0.58823818     0.96600
O453        O  0.72569170  0.19714172  0.60463810    -0.83900
O454        O  0.65810053  0.12328541  0.58851013    -0.86500
C455        C  0.63576559  0.12585923  0.56479138     1.01100
O456        O  0.60857236  0.13682577  0.57062718    -0.79400
O457        O  0.57201792  0.17854005  0.60577665    -0.79500
C458        C  0.58990767  0.20806923  0.58619424     1.01100
Cr459      Cr  0.66236162  0.23060079  0.62646784     1.93700
Cr460      Cr  0.67875657  0.15624883  0.63354065     1.93200
Cr461      Cr  0.59276057  0.14116342  0.61670276     1.39100
O462        O  0.64597627  0.17712634  0.62546643    -1.24600
O463        O  0.61095113  0.40143472  0.82388132    -0.86800
O464        O  0.69665692  0.45191995  0.81295455    -0.83900
C465        C  0.71616808  0.48589500  0.79680891     0.96600
O466        O  0.71307355  0.51751460  0.80666456    -0.83900
O467        O  0.64455573  0.53202136  0.81725955    -0.86600
C468        C  0.61051439  0.52723397  0.82892729     1.01100
O469        O  0.60163923  0.51411542  0.85784938    -0.79300
O470        O  0.58211463  0.44119058  0.81980292    -0.79500
C471        C  0.59772391  0.42082204  0.80610564     1.01100
O472        O  0.62842264  0.40629744  0.89672854    -0.86800
O473        O  0.70773612  0.46060388  0.88453984    -0.83900
C474        C  0.73158078  0.49860066  0.89233072     0.96600
O475        O  0.72895020  0.52788384  0.87872843    -0.83900
O476        O  0.66583173  0.54119303  0.89392197    -0.86500
C477        C  0.64257176  0.51718523  0.91787876     1.01100
O478        O  0.61354676  0.47963648  0.91229232    -0.79400
O479        O  0.57165262  0.40094880  0.87873641    -0.79500
C480        C  0.58928868  0.38818605  0.89752219     1.01100
Cr481      Cr  0.66000390  0.43259041  0.85441303     1.93700
Cr482      Cr  0.68515026  0.52636785  0.84921056     1.93200
Cr483      Cr  0.59588408  0.45969848  0.86649056     1.39100
O484        O  0.64840420  0.47319140  0.85673862    -1.24600
O485        O  0.64508768  0.21459501  0.83318495    -0.86800
O486        O  0.59201194  0.24392511  0.81659738    -0.83900
C487        C  0.55730380  0.22901999  0.80159929     0.96600
O488        O  0.52546498  0.19597855  0.81301877    -0.83900
O489        O  0.51452871  0.11414035  0.82382687    -0.86600
C490        C  0.52070763  0.08612376  0.83589139     1.01100
O491        O  0.53336704  0.09159154  0.86515071    -0.79300
O492        O  0.60713674  0.14567960  0.83014846    -0.79500
C493        C  0.62804130  0.18081631  0.81592390     1.01100
O494        O  0.63599867  0.23234154  0.90432191    -0.86800
O495        O  0.58043222  0.25347620  0.88635297    -0.83900
C496        C  0.54293387  0.23788032  0.89577230     0.96600
O497        O  0.51412811  0.20293836  0.88489546    -0.83900
O498        O  0.50187571  0.12671860  0.89941169    -0.86500
C499        C  0.52517528  0.12934516  0.92434941     1.01100
O500        O  0.56364984  0.14102815  0.92047828    -0.79400
O501        O  0.64338252  0.18010145  0.89056712    -0.79500
C502        C  0.65529134  0.21274530  0.90736914     1.01100
Cr503      Cr  0.61067357  0.23230066  0.86017921     1.93700
Cr504      Cr  0.51748304  0.16057820  0.85539171     1.93200
Cr505      Cr  0.58602935  0.14246748  0.87578030     1.39100
O506        O  0.57104860  0.17946709  0.86378514    -1.24600
O507        O  0.83554761  0.43607765  0.82449931    -0.86800
O508        O  0.80257633  0.35159712  0.81473241    -0.83900
C509        C  0.81629176  0.32933487  0.80185679     0.96600
O510        O  0.84858675  0.33047323  0.81456695    -0.83900
O511        O  0.93142917  0.40011469  0.82345391    -0.86600
C512        C  0.96021952  0.43545719  0.83380775     1.01100
O513        O  0.95542292  0.44662171  0.86205987    -0.79300
O514        O  0.90392220  0.46382354  0.82181072    -0.79500
C515        C  0.86884583  0.44865711  0.80728978     1.01100
O516        O  0.81853586  0.41914591  0.89742952    -0.86800
O517        O  0.79293738  0.34008353  0.88533103    -0.83900
C518        C  0.80693342  0.31822797  0.89736328     0.96600
O519        O  0.84084105  0.32107593  0.88745957    -0.83900
O520        O  0.91790854  0.38497035  0.90085108    -0.86500
C521        C  0.91670222  0.40978999  0.92360577     1.01100
O522        O  0.90734771  0.43755269  0.91613822    -0.79400
O523        O  0.87063359  0.47627107  0.88004633    -0.79500
C524        C  0.83934872  0.45828070  0.89846458     1.01100
Cr525      Cr  0.81596703  0.38774648  0.85562688     1.93700
Cr526      Cr  0.88433196  0.36205211  0.85639882     1.93200
Cr527      Cr  0.90647427  0.45249856  0.86935957     1.39100
O528        O  0.86788448  0.39936294  0.86053815    -1.24600
C529        C  0.72312325  0.21657663  0.91576044    -0.14800
C530        C  0.69546919  0.23089451  0.92495095     0.07300
C531        C  0.71126945  0.26940469  0.94178583    -0.14800
C532        C  0.75423289  0.29720351  0.94131296    -0.14800
C533        C  0.77999996  0.28707237  0.92186837     0.07300
C534        C  0.76586073  0.24511700  0.91389023    -0.14800
H535        H  0.71162113  0.18599241  0.90420330     0.11300
H536        H  0.69059952  0.28044779  0.95048143     0.11300
H537        H  0.76549696  0.32935193  0.94920445     0.11300
H538        H  0.78567403  0.23627759  0.90006305     0.11300
C539        C  0.80611356  0.53571583  0.90447047    -0.14800
C540        C  0.76555783  0.50775026  0.91552965     0.07300
C541        C  0.75926625  0.47532426  0.93715290    -0.14800
C542        C  0.78819586  0.46173313  0.93677500    -0.14800
C543        C  0.82376676  0.48257950  0.91642682     0.07300
C544        C  0.83564942  0.52285749  0.90478791    -0.14800
H545        H  0.81221974  0.56225170  0.88920571     0.11300
H546        H  0.72854745  0.45480775  0.94766802     0.11300
H547        H  0.77947050  0.43161460  0.94750409     0.11300
H548        H  0.86415417  0.54063561  0.89043557     0.11300
C549        C  0.52330340  0.32098087  0.90396145    -0.14800
C550        C  0.56401964  0.34895618  0.91563613     0.07300
C551        C  0.58325520  0.33420310  0.93720850    -0.14800
C552        C  0.56688303  0.29112961  0.93967882    -0.14800
C553        C  0.53403429  0.26418949  0.91813930     0.07300
C554        C  0.50809709  0.27799467  0.90527938    -0.14800
H555        H  0.50669183  0.33184402  0.88864193     0.11300
H556        H  0.61369948  0.35534164  0.94788964     0.11300
H557        H  0.58589413  0.28022495  0.95151424     0.11300
H558        H  0.48133572  0.25726201  0.88996797     0.11300
C559        C  0.57905696  0.14994754  0.73137387    -0.14800
C560        C  0.60079863  0.18741733  0.71377488     0.07300
C561        C  0.63292417  0.22307079  0.72983332    -0.14800
C562        C  0.64419654  0.22063922  0.76266409    -0.14800
C563        C  0.62329418  0.18250738  0.77971062     0.07300
C564        C  0.59055086  0.14738981  0.76366900    -0.14800
H565        H  0.55419071  0.12186104  0.71968527     0.11300
H566        H  0.65028187  0.25231979  0.71662529     0.11300
H567        H  0.66863366  0.24858787  0.77483733     0.11300
H568        H  0.57251444  0.11806935  0.77624356     0.11300
C569        C  0.76650279  0.23999654  0.73331917    -0.14800
C570        C  0.74164715  0.25183157  0.71464436     0.07300
C571        C  0.74266894  0.28896158  0.72530119    -0.14800
C572        C  0.76614176  0.31250015  0.75325788    -0.14800
C573        C  0.79241761  0.30222500  0.77127398     0.07300
C574        C  0.79190052  0.26506085  0.76081978    -0.14800
H575        H  0.76681394  0.21168172  0.72641821     0.11300
H576        H  0.72449676  0.29990718  0.71224102     0.11300
H577        H  0.76349907  0.33933207  0.76076975     0.11300
H578        H  0.81040794  0.25483840  0.77429083     0.11300
C579        C  0.75758304  0.44739172  0.72197690    -0.14800
C580        C  0.79165964  0.48381194  0.70806773     0.07300
C581        C  0.80062089  0.52214605  0.72403537    -0.14800
C582        C  0.77625443  0.52361697  0.75187201    -0.14800
C583        C  0.74250471  0.48673604  0.76583870     0.07300
C584        C  0.73491703  0.44872311  0.75046669    -0.14800
H585        H  0.74822972  0.41700309  0.71096289     0.11300
H586        H  0.82614231  0.55127170  0.71467858     0.11300
H587        H  0.78439471  0.55377597  0.76281197     0.11300
H588        H  0.71041461  0.41922236  0.76017253     0.11300
C589        C  0.89661073  0.42003228  0.72421590    -0.14800
C590        C  0.85971596  0.40614969  0.70607514     0.07300
C591        C  0.82501511  0.40489910  0.72177603    -0.14800
C592        C  0.82837159  0.42085408  0.75424466    -0.14800
C593        C  0.86623604  0.43728421  0.77162855     0.07300
C594        C  0.89985281  0.43552774  0.75656196    -0.14800
H595        H  0.92378716  0.42106640  0.71275399     0.11300
H596        H  0.79601291  0.39358848  0.70832349     0.11300
H597        H  0.80136193  0.42002509  0.76582823     0.11300
H598        H  0.92869636  0.44560960  0.76972758     0.11300
C599        C  0.78704777  0.31778102  0.54007981    -0.14800
C600        C  0.82223873  0.33341233  0.56073799     0.07300
C601        C  0.83386557  0.30536341  0.57358162    -0.14800
C602        C  0.80387092  0.26300919  0.57556076    -0.14800
C603        C  0.76349174  0.25002947  0.56416240     0.07300
C604        C  0.75804298  0.27505227  0.54072180    -0.14800
H605        H  0.77859885  0.33874036  0.52828192     0.11300
H606        H  0.86233909  0.31667610  0.58795504     0.11300
H607        H  0.80954075  0.24342884  0.59216253     0.11300
H608        H  0.72755150  0.26433340  0.52974438     0.11300
C609        C  0.51996996  0.27473059  0.72981205    -0.14800
C610        C  0.55799443  0.30323092  0.71360243     0.07300
C611        C  0.59450540  0.30539485  0.72656018    -0.14800
C612        C  0.59354879  0.28176543  0.75452442    -0.14800
C613        C  0.55582641  0.25254553  0.77040923     0.07300
C614        C  0.51884883  0.24957793  0.75734089    -0.14800
H615        H  0.49085970  0.27140514  0.72095261     0.11300
H616        H  0.62458722  0.32607294  0.71527537     0.11300
H617        H  0.62308460  0.28654094  0.76371823     0.11300
H618        H  0.48902027  0.22840609  0.76881254     0.11300
C619        C  0.62946970  0.47613577  0.72420195    -0.14800
C620        C  0.64255913  0.45193377  0.70631671     0.07300
C621        C  0.64353557  0.41880205  0.72222545    -0.14800
C622        C  0.62719344  0.40716196  0.75440066    -0.14800
C623        C  0.61010411  0.42884626  0.77094083     0.07300
C624        C  0.61251825  0.46410730  0.75583651    -0.14800
H625        H  0.62892148  0.50221411  0.71263244     0.11300
H626        H  0.65421460  0.40011330  0.70897088     0.11300
H627        H  0.62772161  0.38122735  0.76624357     0.11300
H628        H  0.60160642  0.48285416  0.76831868     0.11300
C629        C  0.50785370  0.23564480  0.57756366    -0.14800
C630        C  0.53356613  0.27540661  0.56432021     0.07300
C631        C  0.56582961  0.28089108  0.54215676    -0.14800
C632        C  0.58336507  0.25538709  0.54578676    -0.14800
C633        C  0.56471725  0.22199598  0.56815006     0.07300
C634        C  0.52379002  0.20865565  0.57975537    -0.14800
H635        H  0.48104184  0.22945771  0.59290557     0.11300
H636        H  0.58422797  0.31049453  0.52949109     0.11300
H637        H  0.61382691  0.26500985  0.53497900     0.11300
H638        H  0.50736586  0.18135165  0.59546219     0.11300
C639        C  0.73060675  0.51124486  0.56994588    -0.14800
C640        C  0.70121670  0.47007926  0.55966623     0.07300
C641        C  0.71460025  0.44774045  0.53946474    -0.14800
C642        C  0.75726245  0.46179484  0.53731777    -0.14800
C643        C  0.78507286  0.49574387  0.55778618     0.07300
C644        C  0.77308901  0.52423524  0.56898287    -0.14800
H645        H  0.72094883  0.53022569  0.58413268     0.11300
H646        H  0.69246827  0.41685867  0.52979837     0.11300
H647        H  0.76679990  0.44069538  0.52663245     0.11300
H648        H  0.79451703  0.55179117  0.58338714     0.11300
C649        C  0.00046767  0.50461184  0.80576475    -0.14800
C650        C  0.99807597  0.46649330  0.81527977     0.07300
C651        C  0.03537767  0.46835066  0.82415463    -0.14800
C652        C  0.07157787  0.50707940  0.82966060    -0.14800
C653        C  0.07255873  0.54545072  0.82458576     0.07300
C654        C  0.03725714  0.54366219  0.81043480    -0.14800
H655        H  0.97275174  0.50535468  0.79902728     0.11300
H656        H  0.03485636  0.44031127  0.83260942     0.11300
H657        H  0.09700452  0.50637161  0.84198194     0.11300
H658        H  0.03628684  0.57221294  0.80692199     0.11300
C659        C  0.53679619  0.56364773  0.82902266    -0.14800
C660        C  0.49871130  0.52596191  0.82283653     0.07300
C661        C  0.50120280  0.49319886  0.80691671    -0.14800
C662        C  0.54061362  0.49655236  0.80144261    -0.14800
C663        C  0.57842102  0.53288271  0.81136444     0.07300
C664        C  0.57570536  0.56758490  0.82206091    -0.14800
H665        H  0.53751875  0.58893809  0.84340154     0.11300
H666        H  0.47303371  0.46335652  0.80262672     0.11300
H667        H  0.54061792  0.46844513  0.79366328     0.11300
H668        H  0.60348524  0.59538553  0.83110374     0.11300
C669        C  0.30759519  0.56020470  0.95673222    -0.14800
C670        C  0.30063883  0.52662370  0.93523141     0.07300
C671        C  0.25981702  0.49898737  0.92473496    -0.14800
C672        C  0.23138082  0.51328103  0.92464138    -0.14800
C673        C  0.24463029  0.55481485  0.93504197     0.07300
C674        C  0.28051617  0.57609817  0.95486818    -0.14800
H675        H  0.33838164  0.58029646  0.96731294     0.11300
H676        H  0.25280230  0.47135339  0.90996577     0.11300
H677        H  0.20243755  0.49495034  0.91095515     0.11300
H678        H  0.29043442  0.60721313  0.96470813     0.11300
C679        C  0.48252499  0.97361104  0.82661851    -0.14800
C680        C  0.52073598  0.97344564  0.82484261     0.07300
C681        C  0.55654274  0.01060444  0.81560554    -0.14800
C682        C  0.55502647  0.04776749  0.81249164    -0.14800
C683        C  0.51759217  0.04882095  0.81817274     0.07300
C684        C  0.48088264  0.01047904  0.82275740    -0.14800
H685        H  0.45433987  0.94656277  0.83524250     0.11300
H686        H  0.58663756  0.01226237  0.81510939     0.11300
H687        H  0.58456440  0.07628670  0.81000579     0.11300
H688        H  0.45190172  0.00989515  0.82856992     0.11300
C689        C  0.33754274  0.77035106  0.95567425    -0.14800
C690        C  0.35246512  0.80517751  0.93484137     0.07300
C691        C  0.32440338  0.81787017  0.92391287    -0.14800
C692        C  0.28167789  0.78892140  0.92387369    -0.14800
C693        C  0.26854493  0.74841091  0.93486825     0.07300
C694        C  0.29455087  0.74264945  0.95714604    -0.14800
H695        H  0.35862584  0.76112891  0.96610143     0.11300
H696        H  0.33532571  0.84624435  0.90959975     0.11300
H697        H  0.26137038  0.79506310  0.90853371     0.11300
H698        H  0.28378348  0.71219080  0.96812039     0.11300
C699        C  0.54870556  0.76290866  0.92168951    -0.14800
C700        C  0.52091765  0.77522907  0.93387530     0.07300
C701        C  0.48973588  0.74904277  0.95678812    -0.14800
C702        C  0.47591560  0.70628954  0.95600032    -0.14800
C703        C  0.49635697  0.69169493  0.93485262     0.07300
C704        C  0.53632414  0.72051660  0.92230541    -0.14800
H705        H  0.57446088  0.78330523  0.90547648     0.11300
H706        H  0.46962059  0.75917312  0.96839867     0.11300
H707        H  0.44616589  0.68470026  0.96745050     0.11300
H708        H  0.55403852  0.71000941  0.90739354     0.11300
C709        C  0.98837741  0.46731897  0.66283217    -0.14800
C710        C  0.98749744  0.50492253  0.66787292     0.07300
C711        C  0.02114471  0.53779122  0.68496351    -0.14800
C712        C  0.05682632  0.53479035  0.69239490    -0.14800
C713        C  0.05928730  0.49874721  0.68321774     0.07300
C714        C  0.02270332  0.46363753  0.67199316    -0.14800
H715        H  0.96496295  0.44192201  0.64787141     0.11300
H716        H  0.02220538  0.56743978  0.68868277     0.11300
H717        H  0.08437111  0.56302536  0.70075476     0.11300
H718        H  0.02352643  0.43592242  0.66377239     0.11300
C719        C  0.23808696  0.61071638  0.77325721    -0.14800
C720        C  0.20335230  0.57791662  0.78922261     0.07300
C721        C  0.16552726  0.55568268  0.77190433    -0.14800
C722        C  0.16127313  0.56869275  0.74064789    -0.14800
C723        C  0.19520001  0.60314495  0.72531601     0.07300
C724        C  0.23402670  0.62336111  0.74146416    -0.14800
H725        H  0.26774764  0.62798621  0.78607612     0.11300
H726        H  0.13828311  0.52996800  0.78346619     0.11300
H727        H  0.13138733  0.55103543  0.72842364     0.11300
H728        H  0.26118189  0.64862913  0.72942113     0.11300
C729        C  0.30016634  0.58248910  0.74287024    -0.14800
C730        C  0.26910866  0.54465053  0.72780486     0.07300
C731        C  0.26508653  0.50749322  0.74153506    -0.14800
C732        C  0.29098196  0.50852362  0.76866057    -0.14800
C733        C  0.32123309  0.54668229  0.78418472     0.07300
C734        C  0.32415018  0.58340251  0.77080862    -0.14800
H735        H  0.30573115  0.61215962  0.73333349     0.11300
H736        H  0.24242085  0.47745840  0.73087002     0.11300
H737        H  0.28674974  0.47918967  0.77783969     0.11300
H738        H  0.34585068  0.61366299  0.78163757     0.11300
C739        C  0.50812544  0.51952697  0.69480466    -0.14800
C740        C  0.54371088  0.55754670  0.68461699     0.07300
C741        C  0.57928064  0.55600522  0.67511179    -0.14800
C742        C  0.57672725  0.51742927  0.66910270    -0.14800
C743        C  0.53934830  0.47901589  0.67464906     0.07300
C744        C  0.50601159  0.48060005  0.68998911    -0.14800
H745        H  0.47954997  0.51873923  0.70192397     0.11300
H746        H  0.60668653  0.58409190  0.66622482     0.11300
H747        H  0.60264744  0.51843145  0.65576986     0.11300
H748        H  0.47655670  0.45197513  0.69400737     0.11300
C749        C  0.53715816  0.75449253  0.74281361    -0.14800
C750        C  0.49987462  0.72060958  0.72942519     0.07300
C751        C  0.46220904  0.71373441  0.74455397    -0.14800
C752        C  0.46152499  0.73741190  0.77239793    -0.14800
C753        C  0.49825693  0.77191131  0.78541729     0.07300
C754        C  0.53630416  0.78007288  0.76989152    -0.14800
H755        H  0.56698436  0.76184721  0.73193943     0.11300
H756        H  0.43244670  0.68915202  0.73511394     0.11300
H757        H  0.43147564  0.72866444  0.78349564     0.11300
H758        H  0.56556821  0.80583178  0.77904188     0.11300
C759        C  0.42096726  0.60723620  0.74238621    -0.14800
C760        C  0.44136010  0.58909330  0.72547522     0.07300
C761        C  0.47725767  0.59188574  0.73974958    -0.14800
C762        C  0.49126207  0.61034961  0.77089024    -0.14800
C763        C  0.46869490  0.62508856  0.78906343     0.07300
C764        C  0.43476239  0.62538159  0.77397200    -0.14800
H765        H  0.39463374  0.60755010  0.73109598     0.11300
H766        H  0.49508927  0.58016172  0.72692011     0.11300
H767        H  0.51780198  0.61007731  0.78184342     0.11300
H768        H  0.41743099  0.63743418  0.78740705     0.11300
C769        C  0.32657935  0.50544898  0.59208898    -0.14800
C770        C  0.35707339  0.54501511  0.58041406     0.07300
C771        C  0.34490299  0.56729826  0.55966707    -0.14800
C772        C  0.30299962  0.55628558  0.55905225    -0.14800
C773        C  0.27470754  0.52440144  0.58031251     0.07300
C774        C  0.28475035  0.49493956  0.59194956    -0.14800
H775        H  0.33529362  0.48660084  0.60681941     0.11300
H776        H  0.36796908  0.59686364  0.54890872     0.11300
H777        H  0.29489974  0.57802870  0.54820389     0.11300
H778        H  0.26270425  0.46889398  0.60709203     0.11300
C779        C  0.52464981  0.05611868  0.66776805    -0.14800
C780        C  0.56218022  0.05586136  0.67386527     0.07300
C781        C  0.55916648  0.02059107  0.68907668    -0.14800
C782        C  0.51964883  0.98448621  0.69339855    -0.14800
C783        C  0.48239581  0.98329400  0.68321017     0.07300
C784        C  0.48546620  0.02087231  0.67338036    -0.14800
H785        H  0.52494043  0.08149540  0.65447112     0.11300
H786        H  0.58711183  0.01878552  0.69330329     0.11300
H787        H  0.51934063  0.95614517  0.69994413     0.11300
H788        H  0.45800832  0.02097732  0.66421330     0.11300
C789        C  0.28483244  0.77979395  0.74188307    -0.14800
C790        C  0.31790457  0.77594039  0.72732701     0.07300
C791        C  0.32545256  0.74556083  0.74168098    -0.34000
C792        C  0.30289923  0.72176977  0.76978508    -0.14800
C793        C  0.26916141  0.72447665  0.78398704     0.07300
C794        C  0.26053051  0.75411051  0.76927212    -0.14800
H795        H  0.27707888  0.80203830  0.73165170     0.11300
H796        H  0.34960180  0.74027695  0.73134476     0.11300
H797        H  0.31181846  0.70046211  0.78011092     0.11300
H798        H  0.23535755  0.75800247  0.77928638     0.11300
C799        C  0.43407509  0.80756521  0.73820928    -0.14800
C800        C  0.45108823  0.84594407  0.72161246     0.07300
C801        C  0.45067936  0.87987328  0.73759505    -0.14800
C802        C  0.43512727  0.87623123  0.76971351    -0.14800
C803        C  0.42058824  0.83894050  0.78718958     0.07300
C804        C  0.41875845  0.80408437  0.77088322    -0.14800
H805        H  0.43224590  0.78034345  0.72590187     0.11300
H806        H  0.46101339  0.90895141  0.72521297     0.11300
H807        H  0.43657283  0.90357575  0.78146753     0.11300
H808        H  0.40710301  0.77483055  0.78389251     0.11300
C809        C  0.29304450  0.74301917  0.55741587    -0.14800
C810        C  0.28848157  0.76984874  0.58027763     0.07300
C811        C  0.24906434  0.75676347  0.59428168    -0.14800
C812        C  0.22029258  0.71398540  0.59515195    -0.14800
C813        C  0.23170059  0.68557605  0.58178233     0.07300
C814        C  0.26520784  0.70009207  0.55923095    -0.14800
H815        H  0.32263206  0.75350798  0.54466915     0.11300
H816        H  0.24404816  0.77753061  0.61066665     0.11300
H817        H  0.19320386  0.70337254  0.61132810     0.11300
H818        H  0.27337483  0.67862465  0.54724277     0.11300
C819        C  0.52813716  0.81426055  0.59187638    -0.14800
C820        C  0.48835147  0.80273779  0.57904414     0.07300
C821        C  0.46682799  0.76575168  0.56006453    -0.14800
C822        C  0.47975872  0.73628113  0.56127047    -0.14800
C823        C  0.51277535  0.74343913  0.58268578     0.07300
C824        C  0.54031995  0.78423661  0.59391419    -0.14800
H825        H  0.54629258  0.84351738  0.60551364     0.11300
H826        H  0.43695022  0.75693604  0.54875218     0.11300
H827        H  0.45907603  0.70512258  0.55125701     0.11300
H828        H  0.56663604  0.79070467  0.60970455     0.11300
C829        C  0.91303877  0.37030544  0.97672454    -0.14800
C830        C  0.92716575  0.40826259  0.95954903     0.07300
C831        C  0.94585375  0.44573824  0.97841036    -0.14800
C832        C  0.94737822  0.44536509  0.01340104    -0.14800
C833        C  0.92996627  0.40747439  0.03103081     0.07300
C834        C  0.91433432  0.36990141  0.01222620    -0.14800
H835        H  0.89806963  0.34083746  0.96298637     0.11300
H836        H  0.95729581  0.47554866  0.96612137     0.11300
H837        H  0.95976923  0.47492143  0.02688273     0.11300
H838        H  0.90006984  0.34011449  0.02493596     0.11300
C839        C  0.51414920  0.08442409  0.00928210    -0.14800
C840        C  0.51034084  0.11390597  0.02925610     0.07300
C841        C  0.50141141  0.14252858  0.01377707    -0.14800
C842        C  0.50065298  0.14432125  0.97860144    -0.14800
C843        C  0.50840988  0.11721328  0.95865296     0.07300
C844        C  0.51300032  0.08594963  0.97433316    -0.14800
H845        H  0.52167375  0.06254144  0.02064069     0.11300
H846        H  0.49940071  0.16624150  0.02867188     0.11300
H847        H  0.49837884  0.16953268  0.96713755     0.11300
H848        H  0.51989311  0.06531314  0.95948779     0.11300
C849        C  0.71422642  0.25603089  0.04428801    -0.14800
C850        C  0.69913168  0.22032845  0.06415535     0.07300
C851        C  0.72720286  0.20765156  0.07501822    -0.14800
C852        C  0.77007483  0.23613458  0.07437593    -0.14800
C853        C  0.78389798  0.27674548  0.06312982     0.07300
C854        C  0.75723107  0.28361748  0.04255814    -0.14800
H855        H  0.69314043  0.26551765  0.03428684     0.11300
H856        H  0.71623623  0.17913028  0.08912400     0.11300
H857        H  0.79052126  0.22943494  0.08902073     0.11300
H858        H  0.76808449  0.31430866  0.03202056     0.11300
C859        C  0.61225120  0.52566980  0.97116839    -0.14800
C860        C  0.64778934  0.53193790  0.95322904     0.07300
C861        C  0.68387987  0.54065744  0.97124655    -0.14800
C862        C  0.68303520  0.53937769  0.00656324    -0.14800
C863        C  0.64608344  0.52933739  0.02422458     0.07300
C864        C  0.61140073  0.52435951  0.00622699    -0.14800
H865        H  0.58381714  0.51813108  0.95791928     0.11300
H866        H  0.71123184  0.54428589  0.95804425     0.11300
H867        H  0.70980247  0.54218167  0.01978646     0.11300
H868        H  0.58238604  0.51596092  0.01918645     0.11300
C869        C  0.76534916  0.47570276  0.04796147    -0.14800
C870        C  0.76867400  0.50705755  0.07042266     0.07300
C871        C  0.80673304  0.53209849  0.08684283    -0.14800
C872        C  0.83506119  0.51773697  0.08911750    -0.14800
C873        C  0.82493967  0.47867320  0.07476185     0.07300
C874        C  0.79271604  0.46031992  0.05110133    -0.14800
H875        H  0.73682500  0.45714389  0.03379208     0.11300
H876        H  0.81075360  0.55743696  0.10336067     0.11300
H877        H  0.86095683  0.53358377  0.10641683     0.11300
H878        H  0.78532034  0.43113601  0.03859826     0.11300
C879        C  0.52442285  0.31154694  0.07632913    -0.14800
C880        C  0.56472684  0.33872976  0.06337505     0.07300
C881        C  0.58446307  0.32188438  0.04386858    -0.14800
C882        C  0.56847531  0.27867695  0.04391985    -0.14800
C883        C  0.53573461  0.25372403  0.06628202     0.07300
C884        C  0.50991939  0.26869048  0.07796977    -0.14800
H885        H  0.50745791  0.32372338  0.09026441     0.11300
H886        H  0.61465132  0.34205570  0.03242305     0.11300
H887        H  0.58754664  0.26679072  0.03309432     0.11300
H888        H  0.48350428  0.24961393  0.09410074     0.11300
C889        C  0.60341852  0.08828888  0.47654241    -0.14800
C890        C  0.64029060  0.11388467  0.45857467     0.07300
C891        C  0.67785963  0.13756721  0.47642282    -0.14800
C892        C  0.67760956  0.13822614  0.51178653    -0.14800
C893        C  0.63979285  0.11523127  0.52953393     0.07300
C894        C  0.60315722  0.08901879  0.51154182    -0.14800
H895        H  0.57399845  0.07010179  0.46342367     0.11300
H896        H  0.70648596  0.15837949  0.46318534     0.11300
H897        H  0.70607090  0.15952003  0.52508042     0.11300
H898        H  0.57357130  0.07142731  0.52458977     0.11300
C899        C  0.61224003  0.20599237  0.25718050    -0.14800
C900        C  0.59872167  0.16815932  0.27380017     0.07300
C901        C  0.60364768  0.13649752  0.25826969    -0.14800
C902        C  0.61954407  0.14159117  0.22600945    -0.14800
C903        C  0.63092191  0.17852827  0.20876628     0.07300
C904        C  0.62890667  0.21134974  0.22508736    -0.14800
H905        H  0.61055815  0.23163475  0.26917382     0.11300
H906        H  0.59617566  0.10808609  0.27110012     0.11300
H907        H  0.62101484  0.11588758  0.21394243     0.11300
H908        H  0.63824737  0.24042823  0.21241985     0.11300
C909        C  0.76855147  0.23763054  0.25516311    -0.14800
C910        C  0.73341789  0.23989423  0.26710387     0.07300
C911        C  0.72480179  0.26803197  0.25015351    -0.14800
C912        C  0.74869263  0.29163833  0.22248196    -0.14800
C913        C  0.78475573  0.29107293  0.21114301     0.07300
C914        C  0.79401535  0.26309349  0.22802760    -0.14800
H915        H  0.77717339  0.21709844  0.26741993     0.11300
H916        H  0.69924268  0.27230023  0.25847556     0.11300
H917        H  0.73925460  0.31170077  0.21050267     0.11300
H918        H  0.82096211  0.26082553  0.22031608     0.11300
C919        C  0.93809985  0.49205763  0.46263803    -0.14800
C920        C  0.92578214  0.51836442  0.44761639     0.07300
C921        C  0.91673605  0.54373098  0.46903116    -0.14800
C922        C  0.91738823  0.54076819  0.50431691    -0.14800
C923        C  0.92658990  0.51196902  0.51912900     0.07300
C924        C  0.93831513  0.48880148  0.49766989    -0.14800
H925        H  0.94496411  0.47177501  0.44730640     0.11300
H926        H  0.90681709  0.56421109  0.45852251     0.11300
H927        H  0.90782206  0.55881167  0.51985555     0.11300
H928        H  0.94570398  0.46630388  0.50797980     0.11300
C929        C  0.79228288  0.38045678  0.25665294    -0.14800
C930        C  0.82219766  0.38184225  0.27874826     0.07300
C931        C  0.86280881  0.39539883  0.26694359    -0.14800
C932        C  0.87510000  0.41449982  0.23575991    -0.14800
C933        C  0.84648828  0.41906065  0.21587693     0.07300
C934        C  0.80456486  0.40025390  0.22600985    -0.14800
H935        H  0.76024570  0.36841287  0.26476506     0.11300
H936        H  0.88623533  0.39567355  0.28319670     0.11300
H937        H  0.90697364  0.42616345  0.22756064     0.11300
H938        H  0.78117236  0.40104967  0.21038191     0.11300
C939        C  0.78640548  0.52841828  0.25717945    -0.14800
C940        C  0.78185345  0.49159890  0.27178546     0.07300
C941        C  0.75212385  0.45331062  0.25679896    -0.14800
C942        C  0.72923460  0.45156840  0.22795762    -0.14800
C943        C  0.73266314  0.48799064  0.21360742     0.07300
C944        C  0.76181797  0.52661384  0.22900910    -0.14800
H945        H  0.80822011  0.55864251  0.26806203     0.11300
H946        H  0.74656668  0.42421110  0.26746286     0.11300
H947        H  0.70803435  0.42108823  0.21719551     0.11300
H948        H  0.76613360  0.55562473  0.21898090     0.11300
C949        C  0.77457151  0.32549607  0.44141342    -0.14800
C950        C  0.81020597  0.34737854  0.42146919     0.07300
C951        C  0.82648520  0.32517046  0.40419542    -0.14800
C952        C  0.80179335  0.28179062  0.40006353    -0.14800
C953        C  0.76154856  0.26118293  0.41389167     0.07300
C954        C  0.75101265  0.28195217  0.43860546    -0.14800
H955        H  0.76179407  0.34210127  0.45512992     0.11300
H956        H  0.85425270  0.34172167  0.38877254     0.11300
H957        H  0.81074846  0.26630367  0.38120295     0.11300
H958        H  0.72029055  0.26607318  0.45014951     0.11300
C959        C  0.49896842  0.36186744  0.47520211    -0.14800
C960        C  0.51315970  0.39958559  0.45778657     0.07300
C961        C  0.52513516  0.43650364  0.47640831    -0.14800
C962        C  0.52647406  0.43661703  0.51141312    -0.14800
C963        C  0.51589916  0.39983080  0.52887528     0.07300
C964        C  0.50038645  0.36200186  0.51057938    -0.14800
H965        H  0.49063023  0.33317118  0.46150232     0.11300
H966        H  0.53668131  0.46608595  0.46372002     0.11300
H967        H  0.53915341  0.46627831  0.52478586     0.11300
H968        H  0.49320891  0.33342579  0.52332912     0.11300
C969        C  0.58801584  0.30967995  0.25405296    -0.14800
C970        C  0.55005618  0.30171034  0.26928148     0.07300
C971        C  0.51317063  0.26708376  0.25614967    -0.14800
C972        C  0.51465950  0.24164414  0.22928255    -0.14800
C973        C  0.55298718  0.25038582  0.21393847     0.07300
C974        C  0.58937195  0.28550390  0.22680677    -0.14800
H975        H  0.61741155  0.33514799  0.26323690     0.11300
H976        H  0.48318938  0.25899866  0.26712953     0.11300
H977        H  0.48565882  0.21536215  0.22027825     0.11300
H978        H  0.61963059  0.29434539  0.21602238     0.11300
C979        C  0.62926212  0.41799900  0.25404382    -0.14800
C980        C  0.61091974  0.43827398  0.27095928     0.07300
C981        C  0.58006755  0.44307609  0.25470781    -0.14800
C982        C  0.56881033  0.42934441  0.22201845    -0.14800
C983        C  0.58856670  0.41099923  0.20452699     0.07300
C984        C  0.61783484  0.40404088  0.22110176    -0.14800
H985        H  0.65193829  0.41243718  0.26640491     0.11300
H986        H  0.56362646  0.45649337  0.26727539     0.11300
H987        H  0.54593686  0.43488671  0.20998099     0.11300
H988        H  0.63346187  0.38979874  0.20809214     0.11300
C989        C  0.58136218  0.25320830  0.43491143    -0.14800
C990        C  0.56132003  0.21791889  0.41388277     0.07300
C991        C  0.52211057  0.20695480  0.40017151    -0.14800
C992        C  0.50891499  0.23632113  0.40021552    -0.14800
C993        C  0.53513307  0.27616219  0.41397671     0.07300
C994        C  0.56730698  0.28186329  0.43580654    -0.14800
H995        H  0.61075202  0.26142366  0.44684418     0.11300
H996        H  0.50517635  0.17898804  0.38477419     0.11300
H997        H  0.48313872  0.23075158  0.38411121     0.11300
H998        H  0.58682744  0.31201286  0.44788382     0.11300
C999        C  0.70611043  0.46581213  0.43960415    -0.14800
C1000       C  0.69194789  0.48345575  0.41596538     0.07300
C1001       C  0.72025786  0.52301623  0.40276295    -0.14800
C1002       C  0.76299124  0.53774076  0.40491805    -0.14800
C1003       C  0.77601567  0.51209547  0.41976308     0.07300
C1004       C  0.74899806  0.48196508  0.44292051    -0.14800
H1005       H  0.68461483  0.43653272  0.45160702     0.11300
H1006       H  0.70980679  0.53860589  0.38587407     0.11300
H1007       H  0.78392405  0.56320931  0.38879248     0.11300
H1008       H  0.75938683  0.46395038  0.45695912     0.11300
C1009       C  0.10082068  0.51391996  0.49005851    -0.14800
C1010       C  0.12506331  0.50224627  0.47036149     0.07300
C1011       C  0.14935566  0.48817843  0.48661611    -0.14800
C1012       C  0.15163646  0.48889375  0.52198444    -0.14800
C1013       C  0.12949727  0.50351305  0.54145486     0.07300
C1014       C  0.10291353  0.51442268  0.52503726    -0.14800
H1015       H  0.08217181  0.52528023  0.47828817     0.11300
H1016       H  0.16917898  0.48003054  0.47204899     0.11300
H1017       H  0.17328518  0.48146393  0.53389579     0.11300
H1018       H  0.08592195  0.52631342  0.53932224     0.11300
C1019       C  0.02117891  0.47576709  0.30582341    -0.14800
C1020       C  0.05072390  0.50366577  0.32893548     0.07300
C1021       C  0.04593999  0.53730631  0.34117839    -0.14800
C1022       C  0.01098681  0.54069227  0.33357977    -0.14800
C1023       C  0.97868915  0.50982682  0.31418200     0.07300
C1024       C  0.98539178  0.47881174  0.29856664    -0.14800
H1025       H  0.02365104  0.44964385  0.29587043     0.11300
H1026       H  0.06782185  0.55961381  0.35918501     0.11300
H1027       H  0.00704806  0.56460798  0.34635083     0.11300
H1028       H  0.96103405  0.45444954  0.28329150     0.11300
C1029       C  0.54922001  0.65625517  0.48799066    -0.14800
C1030       C  0.52896299  0.61803554  0.46998208     0.07300
C1031       C  0.51547120  0.58065700  0.48746821    -0.14800
C1032       C  0.51853333  0.58095476  0.52235699    -0.14800
C1033       C  0.53471879  0.61860339  0.54089938     0.07300
C1034       C  0.55202378  0.65654257  0.52330902    -0.14800
H1035       H  0.55919860  0.68547679  0.47518539     0.11300
H1036       H  0.49956249  0.55077547  0.47431651     0.11300
H1037       H  0.50476769  0.55121209  0.53514727     0.11300
H1038       H  0.56387523  0.68593970  0.53691764     0.11300
C1039       C  0.54500461  0.54377747  0.31196067    -0.14800
C1040       C  0.50968892  0.54475083  0.32332245     0.07300
C1041       C  0.47184543  0.50597653  0.32614190    -0.14800
C1042       C  0.47030437  0.46759936  0.32142589    -0.14800
C1043       C  0.50695199  0.46651328  0.31545908     0.07300
C1044       C  0.54374952  0.50517360  0.30841464    -0.14800
H1045       H  0.57485297  0.57257296  0.31047757     0.11300
H1046       H  0.44417116  0.50435617  0.33658518     0.11300
H1047       H  0.44187165  0.43912801  0.32817268     0.11300
H1048       H  0.57335620  0.50681046  0.30467104     0.11300
C1049       C  0.31682824  0.51158396  0.42785634    -0.14800
C1050       C  0.34455125  0.55376381  0.43695309     0.07300
C1051       C  0.32868152  0.57640919  0.45362435    -0.14800
C1052       C  0.28585858  0.56145586  0.45223484    -0.14800
C1053       C  0.26074854  0.52614577  0.43187675     0.07300
C1054       C  0.27438110  0.49782817  0.42470087    -0.14800
H1055       H  0.32835297  0.49230437  0.41680785     0.11300
H1056       H  0.34933858  0.60812679  0.46251893     0.11300
H1057       H  0.27468328  0.58241706  0.45993728     0.11300
H1058       H  0.25487211  0.46932980  0.41052748     0.11300
C1059       C  0.44629085  0.93553415  0.48713284    -0.14800
C1060       C  0.40880830  0.90921775  0.47005425     0.07300
C1061       C  0.37164750  0.88764620  0.48883898    -0.14800
C1062       C  0.37287394  0.88928086  0.52422612    -0.14800
C1063       C  0.41130175  0.91236119  0.54112309     0.07300
C1064       C  0.44752591  0.93707111  0.52215488    -0.14800
H1065       H  0.47546121  0.95202836  0.47336174     0.11300
H1066       H  0.34253137  0.86628802  0.47637365     0.11300
H1067       H  0.34464254  0.86920444  0.53820069     0.11300
H1068       H  0.47759033  0.95480246  0.53445466     0.11300
C1069       C  0.52797615  0.96298301  0.33662189    -0.14800
C1070       C  0.49106117  0.96311245  0.32774463     0.07300
C1071       C  0.49552375  0.99763943  0.31014341    -0.14800
C1072       C  0.53562509  0.03316334  0.30577975    -0.14800
C1073       C  0.57210495  0.03480722  0.31867821     0.07300
C1074       C  0.56770360  0.99774693  0.33144019    -0.14800
H1075       H  0.52645080  0.93804218  0.35149115     0.11300
H1076       H  0.46809797  0.99937849  0.30351830     0.11300
H1077       H  0.53686496  0.06096277  0.29636906     0.11300
H1078       H  0.59437091  0.99789510  0.34265942     0.11300
C1079       C  0.51972466  0.81018810  0.43025324    -0.14800
C1080       C  0.47730848  0.79482378  0.43862805     0.07300
C1081       C  0.45617781  0.75801108  0.45717637    -0.14800
C1082       C  0.47337292  0.73199372  0.45890322    -0.14800
C1083       C  0.50825244  0.74113128  0.43848308     0.07300
C1084       C  0.53533938  0.78279699  0.42998193    -0.14800
H1085       H  0.53797393  0.84002611  0.41791055     0.11300
H1086       H  0.42432247  0.74643067  0.46560446     0.11300
H1087       H  0.45354449  0.70042285  0.46796856     0.11300
H1088       H  0.56388201  0.79146141  0.41618319     0.11300
C1089       C  0.23934229  0.75376599  0.40931642    -0.14800
C1090       C  0.27646557  0.76608001  0.42680512     0.07300
C1091       C  0.27717271  0.73859326  0.45050630    -0.14800
C1092       C  0.24861805  0.69588425  0.44735553    -0.14800
C1093       C  0.21776773  0.68199461  0.42258288     0.07300
C1094       C  0.20990296  0.71117891  0.40682268    -0.14800
H1095       H  0.23728627  0.77495224  0.39194062     0.11300
H1096       H  0.30483022  0.74828086  0.46561852     0.11300
H1097       H  0.25408062  0.67381492  0.46084496     0.11300
H1098       H  0.18519674  0.70107614  0.38843665     0.11300
C1099       C  0.10005878  0.59145882  0.98501058    -0.14800
C1100       C  0.12963140  0.62728196  0.96799013     0.07300
C1101       C  0.15471447  0.66436425  0.98634678    -0.14800
C1102       C  0.15307258  0.66421213  0.02157659    -0.14800
C1103       C  0.12636904  0.62696366  0.03856656     0.07300
C1104       C  0.09835175  0.59133701  0.01997089    -0.14800
H1105       H  0.08093836  0.56240050  0.97136501     0.11300
H1106       H  0.17851507  0.69202196  0.97372874     0.11300
H1107       H  0.17574598  0.69168546  0.03541908     0.11300
H1108       H  0.07801510  0.56212033  0.03256311     0.11300
C1109       C  0.02951513  0.46326380  0.17131610    -0.14800
C1110       C  0.99120427  0.45773087  0.18207301     0.07300
C1111       C  0.99091900  0.49304562  0.19645359    -0.14800
C1112       C  0.02638628  0.53382672  0.19449547    -0.14800
C1113       C  0.06245260  0.53992537  0.17762057     0.07300
C1114       C  0.06335709  0.50350632  0.16704900    -0.14800
H1115       H  0.03083311  0.43742558  0.15922090     0.11300
H1116       H  0.96188859  0.49029570  0.20507342     0.11300
H1117       H  0.02358135  0.56058754  0.20215208     0.11300
H1118       H  0.08772188  0.50535499  0.15092923     0.11300
C1119       C  0.22060493  0.59709155  0.23516672    -0.14800
C1120       C  0.18561964  0.56676242  0.21762760     0.07300
C1121       C  0.14666240  0.54583132  0.23385630    -0.14800
C1122       C  0.14194677  0.55830147  0.26577253    -0.14800
C1123       C  0.17641520  0.59093766  0.28243352     0.07300
C1124       C  0.21596202  0.60953618  0.26716479    -0.14800
H1125       H  0.25101726  0.61327304  0.22325744     0.11300
H1126       H  0.11917525  0.52195264  0.22096011     0.11300
H1127       H  0.11132875  0.54222404  0.27735178     0.11300
H1128       H  0.24343273  0.63344870  0.28009113     0.11300
C1129       C  0.28905119  0.70953591  0.24258514    -0.14800
C1130       C  0.25940935  0.71692758  0.22670269     0.07300
C1131       C  0.25580715  0.75094887  0.23986354    -0.14800
C1132       C  0.28098412  0.77622272  0.26739810    -0.14800
C1133       C  0.30988290  0.76773635  0.28364540     0.07300
C1134       C  0.31238210  0.73315342  0.27075617    -0.14800
H1135       H  0.29423295  0.68481035  0.23338501     0.11300
H1136       H  0.23415420  0.75868075  0.22841263     0.11300
H1137       H  0.27723426  0.80199495  0.27632312     0.11300
H1138       H  0.33310318  0.72428089  0.28228122     0.11300
C1139       C  0.45649995  0.51843237  0.98737416    -0.14800
C1140       C  0.42009642  0.50584524  0.96850828     0.07300
C1141       C  0.38149504  0.48861338  0.98553883    -0.14800
C1142       C  0.38008594  0.48778580  0.02094968    -0.14800
C1143       C  0.41726688  0.50428284  0.03969067     0.07300
C1144       C  0.45512462  0.51774793  0.02241796    -0.14800
H1145       H  0.48669123  0.53214244  0.97501620     0.11300
H1146       H  0.35306538  0.47959429  0.97172661     0.11300
H1147       H  0.35058080  0.47799143  0.03358319     0.11300
H1148       H  0.48427076  0.53080631  0.03612937     0.11300
C1149       C  0.51486514  0.53068087  0.19310349    -0.14800
C1150       C  0.47794255  0.49496054  0.18100681     0.07300
C1151       C  0.48232464  0.46276797  0.16645527    -0.14800
C1152       C  0.52181700  0.46968128  0.15736460    -0.14800
C1153       C  0.55902018  0.50698243  0.16616445     0.07300
C1154       C  0.55506826  0.53648591  0.18604042    -0.14800
H1155       H  0.51322791  0.55681373  0.20395498     0.11300
H1156       H  0.45518066  0.43558910  0.15585719     0.11300
H1157       H  0.52241183  0.44708462  0.14022400     0.11300
H1158       H  0.58260347  0.56592125  0.19270664     0.11300
C1159       C  0.31014162  0.57004034  0.23935869    -0.14800
C1160       C  0.30686964  0.53301568  0.22544695     0.07300
C1161       C  0.27524372  0.49501211  0.23975603    -0.14800
C1162       C  0.24846969  0.49457950  0.26642372    -0.14800
C1163       C  0.25271275  0.53216637  0.28050085     0.07300
C1164       C  0.28480639  0.56966188  0.26634459    -0.14800
H1165       H  0.33316207  0.60022466  0.22957536     0.11300
H1166       H  0.27071625  0.46547653  0.23005653     0.11300
H1167       H  0.22492452  0.46474448  0.27638427     0.11300
H1168       H  0.29044462  0.59960023  0.27603708     0.11300
C1169       C  0.43699951  0.56038955  0.24115412    -0.14800
C1170       C  0.43815207  0.59511858  0.22618608     0.07300
C1171       C  0.41853054  0.61469312  0.24228741    -0.14800
C1172       C  0.40166793  0.60221046  0.27426196    -0.14800
C1173       C  0.40463798  0.57030471  0.29042282     0.07300
C1174       C  0.41951429  0.54749367  0.27261504    -0.14800
H1175       H  0.44962330  0.54297911  0.22871796     0.11300
H1176       H  0.41662535  0.63979641  0.23031551     0.11300
H1177       H  0.38928258  0.61960524  0.28727122     0.11300
H1178       H  0.42103777  0.52196417  0.28414315     0.11300
C1179       C  0.25043678  0.49277363  0.08737930    -0.14800
C1180       C  0.29115640  0.52029702  0.07646747     0.07300
C1181       C  0.29807761  0.55289991  0.05476342    -0.14800
C1182       C  0.26941708  0.56687330  0.05455260    -0.14800
C1183       C  0.23317745  0.54599227  0.07408692     0.07300
C1184       C  0.22103380  0.50574433  0.08613264    -0.14800
H1185       H  0.24391793  0.46636875  0.10298471     0.11300
H1186       H  0.32901461  0.57318399  0.04453386     0.11300
H1187       H  0.27847451  0.59698758  0.04366070     0.11300
H1188       H  0.19215109  0.48796528  0.10003282     0.11300
C1189       C  0.55152777  0.88618765  0.02069671    -0.14800
C1190       C  0.53549772  0.90692499  0.04041062     0.07300
C1191       C  0.52238328  0.93191877  0.02429277    -0.14800
C1192       C  0.52154640  0.93324540  0.98938035    -0.14800
C1193       C  0.53408018  0.90985220  0.96945584     0.07300
C1194       C  0.55090045  0.88772238  0.98533785    -0.14800
H1195       H  0.56081900  0.86582736  0.03240550     0.11300
H1196       H  0.50944161  0.94781557  0.03879219     0.11300
H1197       H  0.50801078  0.95011974  0.97788419     0.11300
H1198       H  0.55981209  0.86856395  0.97057945     0.11300
C1199       C  0.56790560  0.04940483  0.16752983    -0.14800
C1200       C  0.53006612  0.04975532  0.17239600     0.07300
C1201       C  0.49618704  0.01364227  0.18592512    -0.14800
C1202       C  0.49903744  0.97719998  0.19053127    -0.14800
C1203       C  0.53593179  0.97620017  0.18214209     0.07300
C1204       C  0.57119930  0.01397419  0.17353446    -0.14800
H1205       H  0.59411960  0.07445515  0.15479538     0.11300
H1206       H  0.46616939  0.01180367  0.18897399     0.11300
H1207       H  0.47060256  0.94847436  0.19639866     0.11300
H1208       H  0.59943457  0.01423774  0.16553126     0.11300
C1209       C  0.45982633  0.73860807  0.23967302    -0.14800
C1210       C  0.49821193  0.76990285  0.22607655     0.07300
C1211       C  0.53477633  0.77545723  0.24213423    -0.14800
C1212       C  0.53255954  0.75056425  0.27026693    -0.14800
C1213       C  0.49369313  0.71999714  0.28418569     0.07300
C1214       C  0.45763968  0.71552225  0.26833745    -0.14800
H1215       H  0.43067230  0.73214580  0.22835304     0.11300
H1216       H  0.56517120  0.79850428  0.23260711     0.11300
H1217       H  0.56137382  0.75577896  0.28144034     0.11300
H1218       H  0.42694123  0.69348691  0.27793351     0.11300
C1219       C  0.46657890  0.87123885  0.24030447    -0.14800
C1220       C  0.43374947  0.83638644  0.22405190     0.07300
C1221       C  0.41291448  0.79793380  0.24064979    -0.14800
C1222       C  0.42343682  0.79518707  0.27366365    -0.14800
C1223       C  0.45464313  0.83087693  0.29034103     0.07300
C1224       C  0.47739044  0.86833156  0.27279444    -0.14800
H1225       H  0.48457304  0.90094416  0.22787456     0.11300
H1226       H  0.38867370  0.77017615  0.22814987     0.11300
H1227       H  0.40578023  0.76582374  0.28669035     0.11300
H1228       H  0.50182650  0.89632337  0.28490363     0.11300
C1229       C  0.28326020  0.78494083  0.09171056    -0.14800
C1230       C  0.26825908  0.74459362  0.07868196     0.07300
C1231       C  0.29405788  0.73761878  0.05637662    -0.14800
C1232       C  0.33733088  0.76372695  0.05844387    -0.14800
C1233       C  0.35340882  0.79861441  0.07997674     0.07300
C1234       C  0.32634309  0.81231208  0.09232205    -0.14800
H1235       H  0.26351686  0.79196525  0.10751712     0.11300
H1236       H  0.28217908  0.70729196  0.04420855     0.11300
H1237       H  0.35761259  0.75360730  0.04717358     0.11300
H1238       H  0.33814764  0.84057549  0.10749079     0.11300
C1239       C  0.49170666  0.73901552  0.05436796    -0.14800
C1240       C  0.52324596  0.76646594  0.07663301     0.07300
C1241       C  0.54884642  0.75303420  0.09087309    -0.14800
C1242       C  0.53265994  0.71011173  0.09443612    -0.14800
C1243       C  0.49213196  0.68202894  0.08246366     0.07300
C1244       C  0.47418330  0.69602331  0.05890855    -0.14800
H1245       H  0.47369746  0.74974363  0.04071702     0.11300
H1246       H  0.57544289  0.77429138  0.10611437     0.11300
H1247       H  0.54850674  0.69976572  0.11115520     0.11300
H1248       H  0.44410587  0.67467783  0.04777298     0.11300
loop_ 
_geom_bond_atom_site_label_1 
_geom_bond_atom_site_label_2 
_geom_bond_distance 
_geom_bond_site_symmetry_2 
_ccdc_geom_bond_type 
O1          Cr19   1.952       .  S
O1            C9   1.274       .  A
O2          Cr19   1.944       .  S
O2            C3   1.232       .  A
C3            O4   1.262       .  A
C3         C1203   1.485       .  S
O4          Cr20   2.069       .  S
O5          Cr20   2.075       .  S
O5            C6   1.282       .  A
C6            O7   1.267       .  A
C6         C1210   1.544       .  S
O7          Cr21   2.011       .  S
O8          Cr21   2.009       .  S
O8            C9   1.280       .  A
C9         C1220   1.462       .  S
O10         Cr19   1.947       .  S
O10          C18   1.238       .  A
O11         Cr19   1.947       .  S
O11          C12   1.276       .  A
C12          O13   1.300       .  A
C12        C1190   1.485       .  S
O13         Cr20   2.087       .  S
O14         Cr20   1.994       .  S
O14          C15   1.265       .  A
C15          O16   1.262       .  A
C15        C1240   1.466       .  S
O16         Cr21   1.951       .  S
O17         Cr21   2.013       .  S
O17          C18   1.252       .  A
C18        C1233   1.469       .  S
Cr19         O22   1.773       .  S
Cr20         O22   1.763       .  S
Cr21         O22   1.749       .  S
O23         Cr41   1.962       .  S
O23          C31   1.272       .  A
O24         Cr41   1.938       .  S
O24          C25   1.231       .  A
C25          O26   1.263       .  A
C25        C1150   1.482       .  S
O26         Cr42   2.071       .  S
O27         Cr42   2.082       .  S
O27          C28   1.284       .  A
C28          O29   1.269       .  A
C28        C1160   1.552       .  S
O29         Cr43   2.017       .  S
O30         Cr43   2.000       .  S
O30          C31   1.276       .  A
C31        C1170   1.461       .  S
O32         Cr41   1.952       .  S
O32          C40   1.239       .  A
O33         Cr41   1.956       .  S
O33          C34   1.277       .  A
C34          O35   1.298       .  A
C34        C1143   1.489       .  S
O35         Cr42   2.085       .  S
O36         Cr42   1.992       .  S
O36          C37   1.264       .  A
C37          O38   1.260       .  A
C37        C1180   1.461       .  S
O38         Cr43   1.945       .  S
O39         Cr43   2.009       .  S
O39          C40   1.252       .  A
C40        C1243   1.466       .  S
Cr41         O44   1.781       .  S
Cr42         O44   1.765       .  S
Cr43         O44   1.752       .  S
O45         Cr63   1.951       .  S
O45          C53   1.265       .  A
O46         Cr63   1.953       .  S
O46          C47   1.229       .  A
C47          O48   1.267       .  A
C47        C1113   1.504       .  S
O48         Cr64   2.097       .  S
O49         Cr64   2.064       .  S
O49          C50   1.279       .  A
C50          O51   1.268       .  A
C50        C1130   1.543       .  S
O51         Cr65   2.018       .  S
O52         Cr65   2.006       .  S
O52          C53   1.276       .  A
C53        C1120   1.456       .  S
O54         Cr63   1.948       .  S
O54          C62   1.238       .  A
O55         Cr63   1.945       .  S
O55          C56   1.273       .  A
C56          O57   1.294       .  A
C56        C1103   1.473       .  S
O57         Cr64   2.075       .  S
O58         Cr64   2.010       .  S
O58          C59   1.270       .  A
C59          O60   1.260       .  A
C59        C1230   1.466       .  S
O60         Cr65   1.937       .  S
O61         Cr65   2.003       .  S
O61          C62   1.251       .  A
C62        C1183   1.465       .  S
Cr63         O66   1.775       .  S
Cr64         O66   1.771       .  S
Cr65         O66   1.756       .  S
O67         Cr85   1.951       .  S
O67          C75   1.271       .  A
O68         Cr85   1.949       .  S
O68          C69   1.230       .  A
C69          O70   1.262       .  A
C69        C1070   1.497       .  S
O70         Cr86   2.082       .  S
O71         Cr86   2.067       .  S
O71          C72   1.280       .  A
C72          O73   1.269       .  A
C72        C1133   1.544       .  S
O73         Cr87   2.018       .  S
O74         Cr87   2.010       .  S
O74          C75   1.279       .  A
C75        C1223   1.460       .  S
O76         Cr85   1.939       .  S
O76          C84   1.237       .  A
O77         Cr85   1.946       .  S
O77          C78   1.274       .  A
C78          O79   1.299       .  A
C78        C1060   1.485       .  S
O79         Cr86   2.091       .  S
O80         Cr86   1.997       .  S
O80          C81   1.266       .  A
C81          O82   1.262       .  A
C81        C1090   1.463       .  S
O82         Cr87   1.948       .  S
O83         Cr87   2.016       .  S
O83          C84   1.253       .  A
C84        C1080   1.470       .  S
Cr85         O88   1.774       .  S
Cr86         O88   1.768       .  S
Cr87         O88   1.754       .  S
O89        Cr107   1.953       .  S
O89          C97   1.266       .  A
O90        Cr107   1.949       .  S
O90          C91   1.236       .  A
C91          O92   1.265       .  A
C91        C1040   1.491       .  S
O92        Cr108   2.070       .  S
O93        Cr108   2.069       .  S
O93          C94   1.279       .  A
C94          O95   1.268       .  A
C94        C1213   1.545       .  S
O95        Cr109   2.016       .  S
O96        Cr109   2.000       .  S
O96          C97   1.271       .  A
C97        C1173   1.458       .  S
O98        Cr107   1.942       .  S
O98         C106   1.241       .  A
O99        Cr107   1.955       .  S
O99         C100   1.271       .  A
C100        O101   1.291       .  A
C100       C1030   1.487       .  S
O101       Cr108   2.073       .  S
O102       Cr108   1.999       .  S
O102        C103   1.265       .  A
C103        O104   1.260       .  A
C103       C1083   1.464       .  S
O104       Cr109   1.940       .  S
O105       Cr109   2.007       .  S
O105        C106   1.255       .  A
C106       C1050   1.467       .  S
Cr107       O110   1.778       .  S
Cr108       O110   1.776       .  S
Cr109       O110   1.765       .  S
O111       Cr129   1.975       .  S
O111        C119   1.273       .  A
O112       Cr129   1.949       .  S
O112        C113   1.227       .  A
C113        O114   1.265       .  A
C113       C1020   1.502       .  S
O114       Cr130   2.098       .  S
O115       Cr130   2.081       .  S
O115        C116   1.283       .  A
C116        O117   1.269       .  A
C116       C1163   1.553       .  S
O117       Cr131   2.017       .  S
O118       Cr131   1.996       .  S
O118        C119   1.275       .  A
C119       C1123   1.460       .  S
O120       Cr129   1.965       .  S
O120        C128   1.241       .  A
O121       Cr129   1.957       .  S
O121        C122   1.278       .  A
C122        O123   1.299       .  A
C122       C1010   1.487       .  S
O123       Cr130   2.087       .  S
O124       Cr130   1.999       .  S
O124        C125   1.267       .  A
C125        O126   1.259       .  A
C125       C1053   1.462       .  S
O126       Cr131   1.936       .  S
O127       Cr131   1.998       .  S
O127        C128   1.251       .  A
C128       C1093   1.464       .  S
Cr129       O132   1.779       .  S
Cr130       O132   1.766       .  S
Cr131       O132   1.746       .  S
O133       Cr151   1.949       .  S
O133        C141   1.269       .  A
O134       Cr151   1.947       .  S
O134        C135   1.232       .  A
C135        O136   1.262       .  A
C135       C1043   1.488       .  S
O136       Cr152   2.072       .  S
O137       Cr152   2.069       .  S
O137        C138   1.281       .  A
C138        O139   1.266       .  A
C138        C970   1.538       .  S
O139       Cr153   2.006       .  S
O140       Cr153   2.007       .  S
O140        C141   1.278       .  A
C141        C980   1.464       .  S
O142       Cr151   1.950       .  S
O142        C150   1.238       .  A
O143       Cr151   1.949       .  S
O143        C144   1.275       .  A
C144        O145   1.299       .  A
C144        C960   1.487       .  S
O145       Cr152   2.085       .  S
O146       Cr152   1.999       .  S
O146        C147   1.266       .  A
C147        O148   1.260       .  A
C147        C993   1.464       .  S
O148       Cr153   1.947       .  S
O149       Cr153   2.004       .  S
O149        C150   1.251       .  A
C150       C1000   1.463       .  S
Cr151       O154   1.779       .  S
Cr152       O154   1.763       .  S
Cr153       O154   1.749       .  S
O155       Cr173   2.007       .  S
O155        C163   1.268       .  A
O156       Cr173   1.951       .  S
O156        C157   1.240       .  A
C157        O158   1.275       .  A
C157       C1023   1.495       .  S
O158       Cr174   2.067       .  S
O159       Cr174   2.052       .  S
O159        C160   1.284       .  A
C160        O161   1.279       .  A
C160        C940   1.534       .  S
O161       Cr175   2.046       .  S
O162       Cr175   1.926       .  S
O162        C163   1.257       .  A
C163        C930   1.459       .  S
O164       Cr173   1.956       .  S
O164        C172   1.246       .  A
O165       Cr173   2.027       .  S
O165        C166   1.275       .  A
C166        O167   1.265       .  A
C166        C920   1.506       .  S
O167       Cr174   1.996       .  S
O168       Cr174   2.019       .  S
O168        C169   1.272       .  A
C169        O170   1.257       .  A
C169       C1003   1.468       .  S
O170       Cr175   1.951       .  S
O171       Cr175   2.008       .  S
O171        C172   1.264       .  A
C172        C950   1.460       .  S
Cr173       O176   1.764       .  S
Cr174       O176   1.777       .  S
Cr175       O176   1.759       .  S
O177       Cr195   1.963       .  S
O177        C185   1.268       .  A
O178       Cr195   1.951       .  S
O178        C179   1.236       .  A
C179        O180   1.265       .  A
C179       C1073   1.488       .  S
O180       Cr196   2.070       .  S
O181       Cr196   2.073       .  S
O181        C182   1.281       .  A
C182        O183   1.268       .  A
C182        C910   1.542       .  S
O183       Cr197   2.009       .  S
O184       Cr197   1.994       .  S
O184        C185   1.271       .  A
C185        C900   1.458       .  S
O186       Cr195   1.967       .  S
O186        C194   1.244       .  A
O187       Cr195   1.949       .  S
O187        C188   1.273       .  A
C188        O189   1.295       .  A
C188        C890   1.482       .  S
O189       Cr196   2.077       .  S
O190       Cr196   2.002       .  S
O190        C191   1.265       .  A
C191        O192   1.260       .  A
C191        C953   1.462       .  S
O192       Cr197   1.947       .  S
O193       Cr197   2.001       .  S
O193        C194   1.253       .  A
C194        C990   1.468       .  S
Cr195       O198   1.787       .  S
Cr196       O198   1.770       .  S
Cr197       O198   1.757       .  S
O199       Cr217   1.962       .  S
O199        C207   1.269       .  A
O200       Cr217   1.955       .  S
O200        C201   1.232       .  A
C201        O202   1.263       .  A
C201       C1153   1.503       .  S
O202       Cr218   2.085       .  S
O203       Cr218   2.054       .  S
O203        C204   1.276       .  A
C204        O205   1.269       .  A
C204        C943   1.540       .  S
O205       Cr219   2.022       .  S
O206       Cr219   1.997       .  S
O206        C207   1.273       .  A
C207        C983   1.458       .  S
O208       Cr217   1.949       .  S
O208        C216   1.240       .  A
O209       Cr217   1.956       .  S
O209        C210   1.275       .  A
C210        O211   1.295       .  A
C210        C863   1.483       .  S
O211       Cr218   2.078       .  S
O212       Cr218   2.008       .  S
O212        C213   1.269       .  A
C213        O214   1.260       .  A
C213        C870   1.466       .  S
O214       Cr219   1.941       .  S
O215       Cr219   2.009       .  S
O215        C216   1.254       .  A
C216        C880   1.470       .  S
Cr217       O220   1.778       .  S
Cr218       O220   1.773       .  S
Cr219       O220   1.761       .  S
O221       Cr239   1.953       .  S
O221        C229   1.268       .  A
O222       Cr239   1.956       .  S
O222        C223   1.235       .  A
C223        O224   1.267       .  A
C223       C1200   1.503       .  S
O224       Cr240   2.086       .  S
O225       Cr240   2.054       .  S
O225        C226   1.275       .  A
C226        O227   1.269       .  A
C226        C973   1.539       .  S
O227       Cr241   2.018       .  S
O228       Cr241   2.000       .  S
O228        C229   1.275       .  A
C229        C903   1.453       .  S
O230       Cr239   1.954       .  S
O230        C238   1.239       .  A
O231       Cr239   1.958       .  S
O231        C232   1.275       .  A
C232        O233   1.290       .  A
C232        C840   1.477       .  S
O233       Cr240   2.060       .  S
O234       Cr240   2.014       .  S
O234        C235   1.270       .  A
C235        O236   1.257       .  A
C235        C883   1.466       .  S
O236       Cr241   1.929       .  S
O237       Cr241   2.003       .  S
O237        C238   1.251       .  A
C238        C850   1.469       .  S
Cr239       O242   1.780       .  S
Cr240       O242   1.774       .  S
Cr241       O242   1.760       .  S
O243       Cr261   1.978       .  S
O243        C251   1.270       .  A
O244       Cr261   1.944       .  S
O244        C245   1.235       .  A
C245        O246   1.259       .  A
C245       C1110   1.483       .  S
O246       Cr262   2.063       .  S
O247       Cr262   2.072       .  S
O247        C248   1.281       .  A
C248        O249   1.270       .  A
C248        C913   1.545       .  S
O249       Cr263   2.014       .  S
O250       Cr263   1.989       .  S
O250        C251   1.270       .  A
C251        C933   1.462       .  S
O252       Cr261   1.971       .  S
O252        C260   1.247       .  A
O253       Cr261   1.951       .  S
O253        C254   1.274       .  A
C254        O255   1.300       .  A
C254        C833   1.499       .  S
O255       Cr262   2.090       .  S
O256       Cr262   1.997       .  S
O256        C257   1.264       .  A
C257        O258   1.258       .  A
C257        C853   1.464       .  S
O258       Cr263   1.942       .  S
O259       Cr263   2.001       .  S
O259        C260   1.254       .  A
C260        C873   1.470       .  S
Cr261       O264   1.785       .  S
Cr262       O264   1.766       .  S
Cr263       O264   1.752       .  S
O265       Cr283   2.004       .  S
O265        C273   1.276       .  A
O266       Cr283   2.007       .  S
O266        C267   1.266       .  A
C267        O268   1.281       .  A
C267        C790   1.541       .  S
O268       Cr284   2.071       .  S
O269       Cr284   2.058       .  S
O269        C270   1.261       .  A
C270        O271   1.236       .  A
C270        C783   1.481       .  S
O271       Cr285   1.950       .  S
O272       Cr285   1.958       .  S
O272        C273   1.272       .  A
C273        C800   1.464       .  S
O274       Cr283   1.999       .  S
O274        C282   1.251       .  A
O275       Cr283   1.950       .  S
O275        C276   1.261       .  A
C276        O277   1.262       .  A
C276        C810   1.461       .  S
O277       Cr284   1.988       .  S
O278       Cr284   2.079       .  S
O278        C279   1.296       .  A
C279        O280   1.275       .  A
C279       C1063   1.485       .  S
O280       Cr285   1.951       .  S
O281       Cr285   1.960       .  S
O281        C282   1.242       .  A
C282        C820   1.468       .  S
Cr283       O286   1.755       .  S
Cr284       O286   1.769       .  S
Cr285       O286   1.784       .  S
O287       Cr305   2.000       .  S
O287        C295   1.274       .  A
O288       Cr305   1.998       .  S
O288        C289   1.265       .  A
C289        O290   1.283       .  A
C289        C750   1.541       .  S
O290       Cr306   2.079       .  S
O291       Cr306   2.058       .  S
O291        C292   1.263       .  A
C292        O293   1.237       .  A
C292        C740   1.483       .  S
O293       Cr307   1.949       .  S
O294       Cr307   1.956       .  S
O294        C295   1.266       .  A
C295        C760   1.463       .  S
O296       Cr305   1.991       .  S
O296        C304   1.250       .  A
O297       Cr305   1.945       .  S
O297        C298   1.259       .  A
C298        O299   1.263       .  A
C298        C823   1.461       .  S
O299       Cr306   1.993       .  S
O300       Cr306   2.084       .  S
O300        C301   1.297       .  A
C301        O302   1.271       .  A
C301       C1033   1.488       .  S
O302       Cr307   1.943       .  S
O303       Cr307   1.967       .  S
O303        C304   1.244       .  A
C304        C770   1.464       .  S
Cr305       O308   1.753       .  S
Cr306       O308   1.769       .  S
Cr307       O308   1.792       .  S
O309       Cr327   2.005       .  S
O309        C317   1.278       .  A
O310       Cr327   2.022       .  S
O310        C311   1.270       .  A
C311        O312   1.284       .  A
C311        C730   1.554       .  S
O312       Cr328   2.082       .  S
O313       Cr328   2.064       .  S
O313        C314   1.262       .  A
C314        O315   1.233       .  A
C314        C713   1.481       .  S
O315       Cr329   1.943       .  S
O316       Cr329   1.953       .  S
O316        C317   1.271       .  A
C317        C723   1.460       .  S
O318       Cr327   2.007       .  S
O318        C326   1.253       .  A
O319       Cr327   1.955       .  S
O319        C320   1.262       .  A
C320        O321   1.263       .  A
C320        C773   1.462       .  S
O321       Cr328   1.985       .  S
O322       Cr328   2.090       .  S
O322        C323   1.300       .  A
C323        O324   1.274       .  A
C323       C1013   1.487       .  S
O324       Cr329   1.948       .  S
O325       Cr329   1.951       .  S
O325        C326   1.239       .  A
C326        C813   1.465       .  S
Cr327       O330   1.751       .  S
Cr328       O330   1.764       .  S
Cr329       O330   1.783       .  S
O331       Cr349   2.008       .  S
O331        C339   1.279       .  A
O332       Cr349   2.019       .  S
O332        C333   1.269       .  A
C333        O334   1.278       .  A
C333        C753   1.539       .  S
O334       Cr350   2.058       .  S
O335       Cr350   2.076       .  S
O335        C336   1.263       .  A
C336        O337   1.233       .  A
C336        C680   1.494       .  S
O337       Cr351   1.950       .  S
O338       Cr351   1.948       .  S
O338        C339   1.273       .  A
C339        C803   1.459       .  S
O340       Cr349   2.011       .  S
O340        C348   1.251       .  A
O341       Cr349   1.941       .  S
O341        C342   1.260       .  A
C342        O343   1.267       .  A
C342        C700   1.465       .  S
O343       Cr350   2.000       .  S
O344       Cr350   2.074       .  S
O344        C345   1.296       .  A
C345        O346   1.276       .  A
C345       C1193   1.485       .  S
O346       Cr351   1.952       .  S
O347       Cr351   1.943       .  S
O347        C348   1.236       .  A
C348        C690   1.467       .  S
Cr349       O352   1.751       .  S
Cr350       O352   1.766       .  S
Cr351       O352   1.773       .  S
O353       Cr371   2.001       .  S
O353        C361   1.274       .  A
O354       Cr371   2.029       .  S
O354        C355   1.271       .  A
C355        O356   1.281       .  A
C355        C733   1.555       .  S
O356       Cr372   2.076       .  S
O357       Cr372   2.085       .  S
O357        C358   1.266       .  A
C358        O359   1.233       .  A
C358        C660   1.501       .  S
O359       Cr373   1.953       .  S
O360       Cr373   1.951       .  S
O360        C361   1.268       .  A
C361        C763   1.454       .  S
O362       Cr371   2.008       .  S
O362        C370   1.253       .  A
O363       Cr371   1.935       .  S
O363        C364   1.259       .  A
C364        O365   1.267       .  A
C364        C670   1.465       .  S
O365       Cr372   2.003       .  S
O366       Cr372   2.084       .  S
O366        C367   1.296       .  A
C367        O368   1.273       .  A
C367       C1140   1.488       .  S
O368       Cr373   1.951       .  S
O369       Cr373   1.944       .  S
O369        C370   1.238       .  A
C370        C703   1.466       .  S
Cr371       O374   1.759       .  S
Cr372       O374   1.771       .  S
Cr373       O374   1.779       .  S
O375       Cr393   2.004       .  S
O375        C383   1.276       .  A
O376       Cr393   2.020       .  S
O376        C377   1.269       .  A
C377        O378   1.277       .  A
C377        C793   1.542       .  S
O378       Cr394   2.060       .  S
O379       Cr394   2.074       .  S
O379        C380   1.265       .  A
C380        O381   1.235       .  A
C380        C653   1.494       .  S
O381       Cr395   1.952       .  S
O382       Cr395   1.947       .  S
O382        C383   1.269       .  A
C383        C720   1.456       .  S
O384       Cr393   2.010       .  S
O384        C392   1.252       .  A
O385       Cr393   1.942       .  S
O385        C386   1.261       .  A
C386        O387   1.266       .  A
C386        C693   1.465       .  S
O387       Cr394   2.000       .  S
O388       Cr394   2.064       .  S
O388        C389   1.291       .  A
C389        O390   1.273       .  A
C389       C1100   1.473       .  S
O390       Cr395   1.951       .  S
O391       Cr395   1.944       .  S
O391        C392   1.238       .  A
C392        C673   1.469       .  S
Cr393       O396   1.759       .  S
Cr394       O396   1.774       .  S
Cr395       O396   1.778       .  S
O397       Cr415   2.001       .  S
O397        C405   1.273       .  A
O398       Cr415   2.021       .  S
O398        C399   1.270       .  A
C399        O400   1.279       .  A
C399        C610   1.545       .  S
O400       Cr416   2.065       .  S
O401       Cr416   2.070       .  S
O401        C402   1.262       .  A
C402        O403   1.235       .  A
C402        C743   1.492       .  S
O403       Cr417   1.952       .  S
O404       Cr417   1.947       .  S
O404        C405   1.268       .  A
C405        C620   1.452       .  S
O406       Cr415   2.006       .  S
O406        C414   1.253       .  A
O407       Cr415   1.939       .  S
O407        C408   1.260       .  A
C408        O409   1.265       .  A
C408        C630   1.464       .  S
O409       Cr416   1.998       .  S
O410       Cr416   2.080       .  S
O410        C411   1.295       .  A
C411        O412   1.271       .  A
C411        C963   1.484       .  S
O412       Cr417   1.948       .  S
O413       Cr417   1.948       .  S
O413        C414   1.240       .  A
C414        C640   1.467       .  S
Cr415       O418   1.759       .  S
Cr416       O418   1.775       .  S
Cr417       O418   1.779       .  S
O419       Cr437   2.005       .  S
O419        C427   1.275       .  A
O420       Cr437   2.026       .  S
O420        C421   1.271       .  A
C421        O422   1.284       .  A
C421        C580   1.558       .  S
O422       Cr438   2.083       .  S
O423       Cr438   2.078       .  S
O423        C424   1.262       .  A
C424        O425   1.232       .  A
C424        C710   1.497       .  S
O425       Cr439   1.952       .  S
O426       Cr439   1.957       .  S
O426        C427   1.268       .  A
C427        C590   1.458       .  S
O428       Cr437   2.008       .  S
O428        C436   1.253       .  A
O429       Cr437   1.942       .  S
O429        C430   1.259       .  A
C430        O431   1.266       .  A
C430        C643   1.464       .  S
O431       Cr438   1.999       .  S
O432       Cr438   2.102       .  S
O432        C433   1.302       .  A
C433        O434   1.273       .  A
C433        C923   1.505       .  S
O434       Cr439   1.953       .  S
O435       Cr439   1.947       .  S
O435        C436   1.239       .  A
C436        C600   1.466       .  S
Cr437       O440   1.756       .  S
Cr438       O440   1.768       .  S
Cr439       O440   1.779       .  S
O441       Cr459   2.008       .  S
O441        C449   1.279       .  A
O442       Cr459   2.015       .  S
O442        C443   1.269       .  A
C443        O444   1.276       .  A
C443        C570   1.537       .  S
O444       Cr460   2.055       .  S
O445       Cr460   2.074       .  S
O445        C446   1.260       .  A
C446        O447   1.229       .  A
C446        C780   1.491       .  S
O447       Cr461   1.947       .  S
O448       Cr461   1.952       .  S
O448        C449   1.272       .  A
C449        C560   1.459       .  S
O450       Cr459   2.014       .  S
O450        C458   1.252       .  A
O451       Cr459   1.944       .  S
O451        C452   1.261       .  A
C452        O453   1.267       .  A
C452        C603   1.464       .  S
O453       Cr460   2.000       .  S
O454       Cr460   2.078       .  S
O454        C455   1.297       .  A
C455        O456   1.277       .  A
C455        C893   1.481       .  S
O456       Cr461   1.952       .  S
O457       Cr461   1.941       .  S
O457        C458   1.235       .  A
C458        C633   1.468       .  S
Cr459       O462   1.749       .  S
Cr460       O462   1.766       .  S
Cr461       O462   1.769       .  S
O463       Cr481   2.000       .  S
O463        C471   1.276       .  A
O464       Cr481   2.025       .  S
O464        C465   1.270       .  A
C465        O466   1.284       .  A
C465        C583   1.557       .  S
O466       Cr482   2.084       .  S
O467       Cr482   2.069       .  S
O467        C468   1.265       .  A
C468        O469   1.234       .  A
C468        C663   1.487       .  S
O469       Cr483   1.946       .  S
O470       Cr483   1.956       .  S
O470        C471   1.270       .  A
C471        C623   1.459       .  S
O472       Cr481   2.007       .  S
O472        C480   1.253       .  A
O473       Cr481   1.949       .  S
O473        C474   1.261       .  A
C474        O475   1.263       .  A
C474        C540   1.461       .  S
O475       Cr482   1.989       .  S
O476       Cr482   2.081       .  S
O476        C477   1.297       .  A
C477        O478   1.274       .  A
C477        C860   1.483       .  S
O478       Cr483   1.951       .  S
O479       Cr483   1.953       .  S
O479        C480   1.240       .  A
C480        C550   1.466       .  S
Cr481       O484   1.754       .  S
Cr482       O484   1.766       .  S
Cr483       O484   1.786       .  S
O485       Cr503   1.998       .  S
O485        C493   1.272       .  A
O486       Cr503   2.006       .  S
O486        C487   1.266       .  A
C487        O488   1.282       .  A
C487        C613   1.545       .  S
O488       Cr504   2.078       .  S
O489       Cr504   2.070       .  S
O489        C490   1.268       .  A
C490        O491   1.237       .  A
C490        C683   1.490       .  S
O491       Cr505   1.953       .  S
O492       Cr505   1.955       .  S
O492        C493   1.268       .  A
C493        C563   1.463       .  S
O494       Cr503   2.002       .  S
O494        C502   1.253       .  A
O495       Cr503   1.945       .  S
O495        C496   1.261       .  A
C496        O497   1.264       .  A
C496        C553   1.462       .  S
O497       Cr504   1.995       .  S
O498       Cr504   2.073       .  S
O498        C499   1.292       .  A
C499        O500   1.271       .  A
C499        C843   1.477       .  S
O500       Cr505   1.948       .  S
O501       Cr505   1.953       .  S
O501        C502   1.242       .  A
C502        C530   1.467       .  S
Cr503       O506   1.761       .  S
Cr504       O506   1.772       .  S
Cr505       O506   1.784       .  S
O507       Cr525   2.000       .  S
O507        C515   1.273       .  A
O508       Cr525   1.993       .  S
O508        C509   1.264       .  A
C509        O510   1.282       .  A
C509        C573   1.538       .  S
O510       Cr526   2.080       .  S
O511       Cr526   2.070       .  S
O511        C512   1.266       .  A
C512        O513   1.236       .  A
C512        C650   1.487       .  S
O513       Cr527   1.946       .  S
O514       Cr527   1.962       .  S
O514        C515   1.267       .  A
C515        C593   1.467       .  S
O516       Cr525   1.992       .  S
O516        C524   1.250       .  A
O517       Cr525   1.939       .  S
O517        C518   1.259       .  A
C518        O519   1.264       .  A
C518        C533   1.461       .  S
O519       Cr526   1.995       .  S
O520       Cr526   2.084       .  S
O520        C521   1.296       .  A
C521        O522   1.275       .  A
C521        C830   1.498       .  S
O522       Cr527   1.959       .  S
O523       Cr527   1.963       .  S
O523        C524   1.243       .  A
C524        C543   1.463       .  S
Cr525       O528   1.756       .  S
Cr526       O528   1.768       .  S
Cr527       O528   1.784       .  S
C529        C530   1.410       .  A
C529        C534   1.393       .  A
C529        H535   1.083       .  S
C530        C531   1.399       .  A
C531        C532   1.392       .  A
C531        H536   1.083       .  S
C532        C533   1.408       .  A
C532        H537   1.084       .  S
C533        C534   1.395       .  A
C534        H538   1.084       .  S
C539        C540   1.398       .  A
C539        C544   1.392       .  A
C539        H545   1.083       .  S
C540        C541   1.406       .  A
C541        C542   1.391       .  A
C541        H546   1.084       .  S
C542        C543   1.401       .  A
C542        H547   1.083       .  S
C543        C544   1.407       .  A
C544        H548   1.083       .  S
C549        C550   1.409       .  A
C549        C554   1.393       .  A
C549        H555   1.083       .  S
C550        C551   1.399       .  A
C551        C552   1.393       .  A
C551        H556   1.083       .  S
C552        C553   1.408       .  A
C552        H557   1.084       .  S
C553        C554   1.396       .  A
C554        H558   1.084       .  S
C559        C560   1.397       .  A
C559        C564   1.380       .  A
C559        H565   1.083       .  S
C560        C561   1.404       .  A
C561        C562   1.396       .  A
C561        H566   1.081       .  S
C562        C563   1.402       .  A
C562        H567   1.083       .  S
C563        C564   1.403       .  A
C564        H568   1.073       .  S
C569        C570   1.420       .  A
C569        C574   1.434       .  A
C569        H575   1.082       .  S
C570        C571   1.411       .  A
C571        C572   1.408       .  A
C571        H576   1.082       .  S
C572        C573   1.413       .  A
C572        H577   1.081       .  S
C573        C574   1.418       .  A
C574        H578   1.082       .  S
C579        C580   1.417       .  A
C579        C584   1.420       .  A
C579        H585   1.081       .  S
C580        C581   1.422       .  A
C581        C582   1.441       .  A
C581        H586   1.082       .  S
C582        C583   1.422       .  A
C582        H587   1.082       .  S
C583        C584   1.416       .  A
C584        H588   1.082       .  S
C589        C590   1.397       .  A
C589        C594   1.385       .  A
C589        H595   1.083       .  S
C590        C591   1.402       .  A
C591        C592   1.395       .  A
C591        H596   1.080       .  S
C592        C593   1.400       .  A
C592        H597   1.083       .  S
C593        C594   1.405       .  A
C594        H598   1.076       .  S
C599        C600   1.399       .  A
C599        C604   1.392       .  A
C599        H605   1.083       .  S
C600        C601   1.409       .  A
C601        C602   1.393       .  A
C601        H606   1.083       .  S
C602        C603   1.397       .  A
C602        H607   1.083       .  S
C603        C604   1.408       .  A
C604        H608   1.084       .  S
C609        C610   1.420       .  A
C609        C614   1.435       .  A
C609        H615   1.082       .  S
C610        C611   1.414       .  A
C611        C612   1.415       .  A
C611        H616   1.082       .  S
C612        C613   1.415       .  A
C612        H617   1.082       .  S
C613        C614   1.419       .  A
C614        H618   1.082       .  S
C619        C620   1.396       .  A
C619        C624   1.380       .  A
C619        H625   1.083       .  S
C620        C621   1.402       .  A
C621        C622   1.392       .  A
C621        H626   1.082       .  S
C622        C623   1.400       .  A
C622        H627   1.083       .  S
C623        C624   1.404       .  A
C624        H628   1.075       .  S
C629        C630   1.396       .  A
C629        C634   1.393       .  A
C629        H635   1.084       .  S
C630        C631   1.410       .  A
C631        C632   1.395       .  A
C631        H636   1.084       .  S
C632        C633   1.399       .  A
C632        H637   1.083       .  S
C633        C634   1.411       .  A
C634        H638   1.083       .  S
C639        C640   1.410       .  A
C639        C644   1.393       .  A
C639        H645   1.083       .  S
C640        C641   1.399       .  A
C641        C642   1.393       .  A
C641        H646   1.083       .  S
C642        C643   1.409       .  A
C642        H647   1.084       .  S
C643        C644   1.397       .  A
C644        H648   1.083       .  S
C649        C650   1.422   1_455  A
C649        C654   1.410       .  A
C649        H655   1.075   1_455  S
C650        C651   1.395   1_655  A
C651        C652   1.399       .  A
C651        H656   1.084       .  S
C652        C653   1.416       .  A
C652        H657   1.077       .  S
C653        C654   1.397       .  A
C654        H658   1.083       .  S
C659        C660   1.416       .  A
C659        C664   1.397       .  A
C659        H665   1.077       .  S
C660        C661   1.401       .  A
C661        C662   1.414       .  A
C661        H666   1.083       .  S
C662        C663   1.421       .  A
C662        H667   1.078       .  S
C663        C664   1.394       .  A
C664        H668   1.084       .  S
C669        C670   1.411       .  A
C669        C674   1.394       .  A
C669        H675   1.084       .  S
C670        C671   1.395       .  A
C671        C672   1.393       .  A
C671        H676   1.083       .  S
C672        C673   1.411       .  A
C672        H677   1.083       .  S
C673        C674   1.399       .  A
C674        H678   1.083       .  S
C679        C680   1.417       .  A
C679        C684   1.403   1_565  A
C679        H685   1.076       .  S
C680        C681   1.397   1_565  A
C681        C682   1.408       .  A
C681        H686   1.083       .  S
C682        C683   1.420       .  A
C682        H687   1.075       .  S
C683        C684   1.397       .  A
C684        H688   1.084       .  S
C689        C690   1.399       .  A
C689        C694   1.394       .  A
C689        H695   1.083       .  S
C690        C691   1.410       .  A
C691        C692   1.393       .  A
C691        H696   1.084       .  S
C692        C693   1.396       .  A
C692        H697   1.083       .  S
C693        C694   1.409       .  A
C694        H698   1.084       .  S
C699        C700   1.397       .  A
C699        C704   1.392       .  A
C699        H705   1.084       .  S
C700        C701   1.409       .  A
C701        C702   1.393       .  A
C701        H706   1.084       .  S
C702        C703   1.399       .  A
C702        H707   1.083       .  S
C703        C704   1.410       .  A
C704        H708   1.083       .  S
C709        C710   1.416       .  A
C709        C714   1.395   1_655  A
C709        H715   1.078       .  S
C710        C711   1.400   1_655  A
C711        C712   1.413       .  A
C711        H716   1.083       .  S
C712        C713   1.421       .  A
C712        H717   1.079       .  S
C713        C714   1.394       .  A
C714        H718   1.084       .  S
C719        C720   1.402       .  A
C719        C724   1.393       .  A
C719        H725   1.081       .  S
C720        C721   1.398       .  A
C721        C722   1.381       .  A
C721        H726   1.082       .  S
C722        C723   1.404       .  A
C722        H727   1.077       .  S
C723        C724   1.400       .  A
C724        H728   1.082       .  S
C729        C730   1.417       .  A
C729        C734   1.420       .  A
C729        H735   1.082       .  S
C730        C731   1.421       .  A
C731        C732   1.439       .  A
C731        H736   1.082       .  S
C732        C733   1.422       .  A
C732        H737   1.082       .  S
C733        C734   1.416       .  A
C734        H738   1.081       .  S
C739        C740   1.420       .  A
C739        C744   1.409       .  A
C739        H745   1.078       .  S
C740        C741   1.393       .  A
C741        C742   1.396       .  A
C741        H746   1.084       .  S
C742        C743   1.415       .  A
C742        H747   1.076       .  S
C743        C744   1.398       .  A
C744        H748   1.083       .  S
C749        C750   1.418       .  A
C749        C754   1.434       .  A
C749        H755   1.082       .  S
C750        C751   1.415       .  A
C751        C752   1.411       .  A
C751        H756   1.082       .  S
C752        C753   1.411       .  A
C752        H757   1.081       .  S
C753        C754   1.420       .  A
C754        H758   1.082       .  S
C759        C760   1.398       .  A
C759        C764   1.393       .  A
C759        H765   1.082       .  S
C760        C761   1.404       .  A
C761        C762   1.381       .  A
C761        H766   1.076       .  S
C762        C763   1.396       .  A
C762        H767   1.083       .  S
C763        C764   1.402       .  A
C764        H768   1.081       .  S
C769        C770   1.406       .  A
C769        C774   1.393       .  A
C769        H775   1.083       .  S
C770        C771   1.401       .  A
C771        C772   1.390       .  A
C771        H776   1.083       .  S
C772        C773   1.405       .  A
C772        H777   1.084       .  S
C773        C774   1.400       .  A
C774        H778   1.083       .  S
C779        C780   1.416       .  A
C779        C784   1.396       .  A
C779        H785   1.078       .  S
C780        C781   1.397       .  A
C781        C782   1.409   1_545  A
C781        H786   1.083       .  S
C782        C783   1.419       .  A
C782        H787   1.076       .  S
C783        C784   1.395   1_565  A
C784        H788   1.084       .  S
C789        C790   1.418       .  A
C789        C794   1.434       .  A
C789        H795   1.082       .  S
C790        C791   1.414       .  A
C791        C792   1.414       .  A
C791        H796   1.082       .  S
C792        C793   1.413       .  A
C792        H797   1.081       .  S
C793        C794   1.420       .  A
C794        H798   1.082       .  S
C799        C800   1.402       .  A
C799        C804   1.398       .  A
C799        H805   1.083       .  S
C800        C801   1.403       .  A
C801        C802   1.380       .  A
C801        H806   1.069       .  S
C802        C803   1.395       .  A
C802        H807   1.083       .  S
C803        C804   1.404       .  A
C804        H808   1.080       .  S
C809        C810   1.407       .  A
C809        C814   1.392       .  A
C809        H815   1.084       .  S
C810        C811   1.398       .  A
C811        C812   1.392       .  A
C811        H816   1.084       .  S
C812        C813   1.409       .  A
C812        H817   1.083       .  S
C813        C814   1.399       .  A
C814        H818   1.083       .  S
C819        C820   1.409       .  A
C819        C824   1.393       .  A
C819        H825   1.083       .  S
C820        C821   1.400       .  A
C821        C822   1.392       .  A
C821        H826   1.083       .  S
C822        C823   1.407       .  A
C822        H827   1.084       .  S
C823        C824   1.397       .  A
C824        H828   1.084       .  S
C829        C830   1.411       .  A
C829        C834   1.418   1_556  A
C829        H835   1.083       .  S
C830        C831   1.405       .  A
C831        C832   1.398   1_556  A
C831        H836   1.084       .  S
C832        C833   1.407       .  A
C832        H837   1.083       .  S
C833        C834   1.411       .  A
C834        H838   1.083       .  S
C839        C840   1.401       .  A
C839        C844   1.398   1_554  A
C839        H845   1.083       .  S
C840        C841   1.407       .  A
C841        C842   1.407   1_554  A
C841        H846   1.083       .  S
C842        C843   1.406       .  A
C842        H847   1.083       .  S
C843        C844   1.404       .  A
C844        H848   1.084       .  S
C849        C850   1.400       .  A
C849        C854   1.394       .  A
C849        H855   1.083       .  S
C850        C851   1.409       .  A
C851        C852   1.394       .  A
C851        H856   1.083       .  S
C852        C853   1.398       .  A
C852        H857   1.084       .  S
C853        C854   1.408       .  A
C854        H858   1.084       .  S
C859        C860   1.405       .  A
C859        C864   1.399   1_556  A
C859        H865   1.084       .  S
C860        C861   1.407       .  A
C861        C862   1.410   1_556  A
C861        H866   1.083       .  S
C862        C863   1.407       .  A
C862        H867   1.083       .  S
C863        C864   1.404       .  A
C864        H868   1.083       .  S
C869        C870   1.409       .  A
C869        C874   1.394       .  A
C869        H875   1.084       .  S
C870        C871   1.399       .  A
C871        C872   1.395       .  A
C871        H876   1.084       .  S
C872        C873   1.408       .  A
C872        H877   1.083       .  S
C873        C874   1.400       .  A
C874        H878   1.084       .  S
C879        C880   1.411       .  A
C879        C884   1.394       .  A
C879        H885   1.083       .  S
C880        C881   1.398       .  A
C881        C882   1.395       .  A
C881        H886   1.083       .  S
C882        C883   1.412       .  A
C882        H887   1.084       .  S
C883        C884   1.395       .  A
C884        H888   1.084       .  S
C889        C890   1.404       .  A
C889        C894   1.396       .  A
C889        H895   1.084       .  S
C890        C891   1.407       .  A
C891        C892   1.410       .  A
C891        H896   1.083       .  S
C892        C893   1.408       .  A
C892        H897   1.083       .  S
C893        C894   1.402       .  A
C894        H898   1.084       .  S
C899        C900   1.400       .  A
C899        C904   1.388       .  A
C899        H905   1.083       .  S
C900        C901   1.404       .  A
C901        C902   1.385       .  A
C901        H906   1.077       .  S
C902        C903   1.398       .  A
C902        H907   1.083       .  S
C903        C904   1.401       .  A
C904        H908   1.080       .  S
C909        C910   1.420       .  A
C909        C914   1.436       .  A
C909        H915   1.082       .  S
C910        C911   1.412       .  A
C911        C912   1.412       .  A
C911        H916   1.082       .  S
C912        C913   1.414       .  A
C912        H917   1.082       .  S
C913        C914   1.420       .  A
C914        H918   1.082       .  S
C919        C920   1.406       .  A
C919        C924   1.405       .  A
C919        H925   1.083       .  S
C920        C921   1.415       .  A
C921        C922   1.415       .  A
C921        H926   1.083       .  S
C922        C923   1.407       .  A
C922        H927   1.083       .  S
C923        C924   1.412       .  A
C924        H928   1.083       .  S
C929        C930   1.401       .  A
C929        C934   1.384       .  A
C929        H935   1.083       .  S
C930        C931   1.402       .  A
C931        C932   1.394       .  A
C931        H936   1.083       .  S
C932        C933   1.405       .  A
C932        H937   1.081       .  S
C933        C934   1.401       .  A
C934        H938   1.083       .  S
C939        C940   1.416       .  A
C939        C944   1.432       .  A
C939        H945   1.082       .  S
C940        C941   1.410       .  A
C941        C942   1.416       .  A
C941        H946   1.080       .  S
C942        C943   1.414       .  A
C942        H947   1.082       .  S
C943        C944   1.419       .  A
C944        H948   1.082       .  S
C949        C950   1.397       .  A
C949        C954   1.394       .  A
C949        H955   1.083       .  S
C950        C951   1.407       .  A
C951        C952   1.396       .  A
C951        H956   1.084       .  S
C952        C953   1.399       .  A
C952        H957   1.084       .  S
C953        C954   1.407       .  A
C954        H958   1.084       .  S
C959        C960   1.408       .  A
C959        C964   1.412       .  A
C959        H965   1.083       .  S
C960        C961   1.405       .  A
C961        C962   1.398       .  A
C961        H966   1.084       .  S
C962        C963   1.404       .  A
C962        H967   1.084       .  S
C963        C964   1.408       .  A
C964        H968   1.083       .  S
C969        C970   1.414       .  A
C969        C974   1.412       .  A
C969        H975   1.082       .  S
C970        C971   1.418       .  A
C971        C972   1.433       .  A
C971        H976   1.082       .  S
C972        C973   1.420       .  A
C972        H977   1.082       .  S
C973        C974   1.412       .  A
C974        H978   1.082       .  S
C979        C980   1.400       .  A
C979        C984   1.394       .  A
C979        H985   1.083       .  S
C980        C981   1.405       .  A
C981        C982   1.382       .  A
C981        H986   1.075       .  S
C982        C983   1.397       .  A
C982        H987   1.083       .  S
C983        C984   1.404       .  A
C984        H988   1.082       .  S
C989        C990   1.399       .  A
C989        C994   1.393       .  A
C989        H995   1.083       .  S
C990        C991   1.408       .  A
C991        C992   1.394       .  A
C991        H996   1.083       .  S
C992        C993   1.399       .  A
C992        H997   1.083       .  S
C993        C994   1.407       .  A
C994        H998   1.084       .  S
C999       C1000   1.399       .  A
C999       C1004   1.392       .  A
C999       H1005   1.083       .  S
C1000      C1001   1.408       .  A
C1001      C1002   1.392       .  A
C1001      H1006   1.084       .  S
C1002      C1003   1.399       .  A
C1002      H1007   1.083       .  S
C1003      C1004   1.409       .  A
C1004      H1008   1.084       .  S
C1009      C1010   1.404       .  A
C1009      C1014   1.397       .  A
C1009      H1015   1.083       .  S
C1010      C1011   1.409       .  A
C1011      C1012   1.413       .  A
C1011      H1016   1.083       .  S
C1012      C1013   1.408       .  A
C1012      H1017   1.083       .  S
C1013      C1014   1.405       .  A
C1014      H1018   1.084       .  S
C1019      C1020   1.401       .  A
C1019      C1024   1.416   1_455  A
C1019      H1025   1.082       .  S
C1020      C1021   1.418       .  A
C1021      C1022   1.396       .  A
C1021      H1026   1.083       .  S
C1022      C1023   1.395   1_455  A
C1022      H1027   1.083       .  S
C1023      C1024   1.421       .  A
C1024      H1028   1.082       .  S
C1029      C1030   1.409       .  A
C1029      C1034   1.413       .  A
C1029      H1035   1.083       .  S
C1030      C1031   1.403       .  A
C1031      C1032   1.397       .  A
C1031      H1036   1.084       .  S
C1032      C1033   1.406       .  A
C1032      H1037   1.084       .  S
C1033      C1034   1.408       .  A
C1034      H1038   1.083       .  S
C1039      C1040   1.395       .  A
C1039      C1044   1.407       .  A
C1039      H1045   1.083       .  S
C1040      C1041   1.417       .  A
C1041      C1042   1.398       .  A
C1041      H1046   1.075       .  S
C1042      C1043   1.393       .  A
C1042      H1047   1.084       .  S
C1043      C1044   1.421       .  A
C1044      H1048   1.075       .  S
C1049      C1050   1.412       .  A
C1049      C1054   1.392       .  A
C1049      H1055   1.083       .  S
C1050      C1051   1.398       .  A
C1051      C1052   1.392       .  A
C1051      H1056   1.083       .  S
C1052      C1053   1.410       .  A
C1052      H1057   1.084       .  S
C1053      C1054   1.395       .  A
C1054      H1058   1.083       .  S
C1059      C1060   1.405       .  A
C1059      C1064   1.398       .  A
C1059      H1065   1.084       .  S
C1060      C1061   1.408       .  A
C1061      C1062   1.412       .  A
C1061      H1066   1.083       .  S
C1062      C1063   1.408       .  A
C1062      H1067   1.083       .  S
C1063      C1064   1.404       .  A
C1064      H1068   1.084       .  S
C1069      C1070   1.416       .  A
C1069      C1074   1.398       .  A
C1069      H1075   1.080       .  S
C1070      C1071   1.399       .  A
C1071      C1072   1.413   1_565  A
C1071      H1076   1.083       .  S
C1072      C1073   1.420       .  A
C1072      H1077   1.077       .  S
C1073      C1074   1.397   1_545  A
C1074      H1078   1.084       .  S
C1079      C1080   1.412       .  A
C1079      C1084   1.393       .  A
C1079      H1085   1.083       .  S
C1080      C1081   1.399       .  A
C1081      C1082   1.395       .  A
C1081      H1086   1.083       .  S
C1082      C1083   1.411       .  A
C1082      H1087   1.084       .  S
C1083      C1084   1.394       .  A
C1084      H1088   1.083       .  S
C1089      C1090   1.400       .  A
C1089      C1094   1.394       .  A
C1089      H1095   1.084       .  S
C1090      C1091   1.407       .  A
C1091      C1092   1.393       .  A
C1091      H1096   1.084       .  S
C1092      C1093   1.400       .  A
C1092      H1097   1.084       .  S
C1093      C1094   1.406       .  A
C1094      H1098   1.083       .  S
C1099      C1100   1.402       .  A
C1099      C1104   1.395   1_556  A
C1099      H1105   1.084       .  S
C1100      C1101   1.406       .  A
C1101      C1102   1.406   1_556  A
C1101      H1106   1.083       .  S
C1102      C1103   1.405       .  A
C1102      H1107   1.083       .  S
C1103      C1104   1.403       .  A
C1104      H1108   1.084       .  S
C1109      C1110   1.390   1_455  A
C1109      C1114   1.392       .  A
C1109      H1115   1.085       .  S
C1110      C1111   1.421       .  A
C1111      C1112   1.417   1_655  A
C1111      H1116   1.079       .  S
C1112      C1113   1.403       .  A
C1112      H1117   1.083       .  S
C1113      C1114   1.419       .  A
C1114      H1118   1.076       .  S
C1119      C1120   1.398       .  A
C1119      C1124   1.388       .  A
C1119      H1125   1.082       .  S
C1120      C1121   1.403       .  A
C1121      C1122   1.386       .  A
C1121      H1126   1.082       .  S
C1122      C1123   1.402       .  A
C1122      H1127   1.082       .  S
C1123      C1124   1.402       .  A
C1124      H1128   1.083       .  S
C1129      C1130   1.413       .  A
C1129      C1134   1.414       .  A
C1129      H1135   1.081       .  S
C1130      C1131   1.420       .  A
C1131      C1132   1.435       .  A
C1131      H1136   1.082       .  S
C1132      C1133   1.419       .  A
C1132      H1137   1.083       .  S
C1133      C1134   1.414       .  A
C1134      H1138   1.081       .  S
C1139      C1140   1.405       .  A
C1139      C1144   1.398   1_556  A
C1139      H1145   1.084       .  S
C1140      C1141   1.409       .  A
C1141      C1142   1.413   1_556  A
C1141      H1146   1.083       .  S
C1142      C1143   1.409       .  A
C1142      H1147   1.083       .  S
C1143      C1144   1.405       .  A
C1144      H1148   1.084       .  S
C1149      C1150   1.421       .  A
C1149      C1154   1.417       .  A
C1149      H1155   1.080       .  S
C1150      C1151   1.395       .  A
C1151      C1152   1.395       .  A
C1151      H1156   1.084       .  S
C1152      C1153   1.415       .  A
C1152      H1157   1.079       .  S
C1153      C1154   1.403       .  A
C1154      H1158   1.083       .  S
C1159      C1160   1.415       .  A
C1159      C1164   1.416       .  A
C1159      H1165   1.082       .  S
C1160      C1161   1.422       .  A
C1161      C1162   1.441       .  A
C1161      H1166   1.082       .  S
C1162      C1163   1.423       .  A
C1162      H1167   1.082       .  S
C1163      C1164   1.415       .  A
C1164      H1168   1.082       .  S
C1169      C1170   1.403       .  A
C1169      C1174   1.383       .  A
C1169      H1175   1.079       .  S
C1170      C1171   1.401       .  A
C1171      C1172   1.393       .  A
C1171      H1176   1.082       .  S
C1172      C1173   1.403       .  A
C1172      H1177   1.082       .  S
C1173      C1174   1.398       .  A
C1174      H1178   1.081       .  S
C1179      C1180   1.397       .  A
C1179      C1184   1.392       .  A
C1179      H1185   1.084       .  S
C1180      C1181   1.407       .  A
C1181      C1182   1.392       .  A
C1181      H1186   1.084       .  S
C1182      C1183   1.399       .  A
C1182      H1187   1.083       .  S
C1183      C1184   1.409       .  A
C1184      H1188   1.083       .  S
C1189      C1190   1.409       .  A
C1189      C1194   1.413   1_554  A
C1189      H1195   1.083       .  S
C1190      C1191   1.404       .  A
C1191      C1192   1.395   1_554  A
C1191      H1196   1.084       .  S
C1192      C1193   1.402       .  A
C1192      H1197   1.084       .  S
C1193      C1194   1.410       .  A
C1194      H1198   1.083       .  S
C1199      C1200   1.417       .  A
C1199      C1204   1.397       .  A
C1199      H1205   1.075       .  S
C1200      C1201   1.403       .  A
C1201      C1202   1.415   1_545  A
C1201      H1206   1.083       .  S
C1202      C1203   1.420       .  A
C1202      H1207   1.080       .  S
C1203      C1204   1.393   1_565  A
C1204      H1208   1.084       .  S
C1209      C1210   1.414       .  A
C1209      C1214   1.413       .  A
C1209      H1215   1.082       .  S
C1210      C1211   1.419       .  A
C1211      C1212   1.436       .  A
C1211      H1216   1.082       .  S
C1212      C1213   1.421       .  A
C1212      H1217   1.082       .  S
C1213      C1214   1.413       .  A
C1214      H1218   1.081       .  S
C1219      C1220   1.403       .  A
C1219      C1224   1.381       .  A
C1219      H1225   1.080       .  S
C1220      C1221   1.402       .  A
C1221      C1222   1.396       .  A
C1221      H1226   1.083       .  S
C1222      C1223   1.404       .  A
C1222      H1227   1.082       .  S
C1223      C1224   1.399       .  A
C1224      H1228   1.083       .  S
C1229      C1230   1.395       .  A
C1229      C1234   1.393       .  A
C1229      H1235   1.083       .  S
C1230      C1231   1.411       .  A
C1231      C1232   1.395       .  A
C1231      H1236   1.084       .  S
C1232      C1233   1.399       .  A
C1232      H1237   1.083       .  S
C1233      C1234   1.411       .  A
C1234      H1238   1.083       .  S
C1239      C1240   1.407       .  A
C1239      C1244   1.394       .  A
C1239      H1245   1.084       .  S
C1240      C1241   1.398       .  A
C1241      C1242   1.393       .  A
C1241      H1246   1.084       .  S
C1242      C1243   1.409       .  A
C1242      H1247   1.083       .  S
C1243      C1244   1.400       .  A
C1244      H1248   1.083       .  S
