geometry optimzed in LAMMPS
_audit_creation_date              2020-11-30 
_audit_creation_method            'lammps2cif' 
_symmetry_space_group_name_H-M    'P1' 
_symmetry_Int_Tables_number       1 
_symmetry_cell_setting            triclinic 
loop_ 
_symmetry_equiv_pos_as_xyz 
  x,y,z 
_cell_length_a                    42.26597538 
_cell_length_b                    42.22359413406791 
_cell_length_c                    54.3836410825278 
_cell_angle_alpha                 90.0948874798086 
_cell_angle_beta                  89.91108342644378 
_cell_angle_gamma                 120.03370187963664 
loop_ 
_atom_site_label 
_atom_site_type_symbol 
_atom_site_fract_x 
_atom_site_fract_y 
_atom_site_fract_z 
_atom_site_charge 
O1          O  0.02288559  0.23649875  0.98994707    -0.85300
O2          O  0.04636240  0.20192334  0.01943697    -0.82400
C3          C  0.02134739  0.16852328  0.01818191     0.98100
O4          O  0.01925583  0.14921823  0.99982581    -0.82400
O5          O  0.01968265  0.13072409  0.95092953    -0.85100
C6          C  0.49234545  0.12846606  0.94433136     1.02700
O7          O  0.49393198  0.15897909  0.94486390    -0.77800
O8          O  0.01860175  0.23768268  0.94988682    -0.78000
C9          C  0.01013448  0.24327615  0.97122608     1.02600
O10         O  0.09403686  0.28122037  0.96825483    -0.85300
O11         O  0.11851500  0.24387693  0.99583117    -0.82400
C12         C  0.12343913  0.21850338  0.00314475     0.98200
O13         O  0.09803121  0.18557208  0.00108536    -0.82400
O14         O  0.09719928  0.17432988  0.95081089    -0.85000
C15         C  0.09221874  0.17727216  0.92824388     1.02600
O16         O  0.06731551  0.18393686  0.92132078    -0.77800
O17         O  0.08971104  0.25382524  0.93310757    -0.78000
C18         C  0.10337683  0.28230818  0.94596062     1.02600
Cr19       Cr  0.06968486  0.23809741  0.99151773     1.93700
Cr20       Cr  0.05843553  0.16321940  0.97532165     1.93200
Cr21       Cr  0.04365887  0.20942647  0.93891879     1.39100
O22         O  0.05745338  0.20388913  0.96853018    -1.23100
O23         O  0.26637759  0.47939702  0.84938923    -0.85300
O24         O  0.29985981  0.45447627  0.81975421    -0.82400
C25         C  0.33368229  0.47822947  0.82045887     0.98100
O26         O  0.35323617  0.48015676  0.83852212    -0.82400
O27         O  0.37210780  0.48312679  0.88712506    -0.85100
C28         C  0.36793759  0.00823555  0.89501876     1.02700
O29         O  0.33945477  0.50862174  0.89533937    -0.77800
O30         O  0.26617072  0.48456298  0.88943105    -0.78000
C31         C  0.26080537  0.49301067  0.86820625     1.02600
O32         O  0.22256379  0.40873508  0.87226428    -0.85300
O33         O  0.25764209  0.38270823  0.84312331    -0.82400
C34         C  0.28273972  0.37726820  0.83581330     0.98200
O35         O  0.31580907  0.40173389  0.83900877    -0.82400
O36         O  0.32684992  0.40498319  0.88959731    -0.85000
C37         C  0.32503103  0.41170877  0.91202860     1.02600
O38         O  0.32094412  0.43847360  0.91826079    -0.77800
O39         O  0.25063569  0.41499554  0.90749811    -0.78000
C40         C  0.22201993  0.40057580  0.89480376     1.02600
Cr41       Cr  0.26436707  0.43216627  0.84801426     1.93700
Cr42       Cr  0.33882107  0.44256428  0.86399502     1.93200
Cr43       Cr  0.29483918  0.46065475  0.90015532     1.39100
O44         O  0.29894340  0.44481534  0.87069175    -1.23100
O45         O  0.26326351  0.28094493  0.32405052    -0.85300
O46         O  0.29739463  0.34094135  0.35292514    -0.82400
C47         C  0.33077928  0.34919068  0.35145819     0.98100
O48         O  0.34968851  0.36575432  0.33286453    -0.82400
O49         O  0.36804572  0.38262191  0.28403353    -0.85100
C50         C  0.36583983  0.35355000  0.27556509     1.02700
O51         O  0.33562549  0.32431387  0.27639941    -0.77800
O52         O  0.26238257  0.27395961  0.28405557    -0.78000
C53         C  0.25706653  0.26083208  0.30562004     1.02600
O54         O  0.21819184  0.30617247  0.30062101    -0.85300
O55         O  0.25423652  0.36863571  0.32801201    -0.82400
C56         C  0.27921609  0.39883190  0.33579145     0.98200
O57         O  0.31223091  0.40681915  0.33345301    -0.82400
O58         O  0.32173349  0.41442038  0.28284414    -0.85000
C59         C  0.32091941  0.40630802  0.26042191     1.02600
O60         O  0.31658435  0.37530506  0.25413052    -0.77800
O61         O  0.24580733  0.32758225  0.26524464    -0.78000
C62         C  0.21725211  0.31352986  0.27801587     1.02600
Cr63       Cr  0.26090784  0.32591974  0.32458469     1.93700
Cr64       Cr  0.33491691  0.38928960  0.30795680     1.93200
Cr65       Cr  0.29050477  0.32669521  0.27233448     1.39100
O66         O  0.29508600  0.34706213  0.30161603    -1.23100
O67         O  0.02059005  0.28692198  0.18333148    -0.85300
O68         O  0.04812828  0.34522390  0.15394173    -0.82400
C69         C  0.02211937  0.35221562  0.15534547     0.98100
O70         O  0.02001085  0.36968648  0.17344911    -0.82400
O71         O  0.02015744  0.38892022  0.22148447    -0.85100
C72         C  0.49291402  0.35838546  0.22999187     1.02700
O73         O  0.49352644  0.32889982  0.22934510    -0.77800
O74         O  0.01721466  0.27996657  0.22318589    -0.78000
C75         C  0.00854593  0.26663490  0.20171555     1.02600
O76         O  0.08997690  0.30949559  0.20719597    -0.85300
O77         O  0.11873897  0.37165519  0.17898646    -0.82400
C78         C  0.12439257  0.40173450  0.17067513     0.98200
O79         O  0.09941585  0.41001217  0.17220258    -0.82400
O80         O  0.09836568  0.42035260  0.22259773    -0.85000
C81         C  0.09072766  0.41271785  0.24504797     1.02600
O82         O  0.06337541  0.38219174  0.25134987    -0.77800
O83         O  0.08653482  0.33454958  0.24178251    -0.78000
C84         C  0.09874074  0.31771038  0.22969610     1.02600
Cr85       Cr  0.06879193  0.33006470  0.18246785     1.93700
Cr86       Cr  0.05949424  0.39447039  0.19774270     1.93200
Cr87       Cr  0.04112673  0.33309658  0.23406750     1.39100
O88         O  0.05701005  0.35257590  0.20486245    -1.23100
O89         O  0.27995783  0.03699818  0.14418265    -0.85300
O90         O  0.31920946  0.02375369  0.17940517    -0.82400
C91         C  0.34380892  0.01712930  0.18666249     0.98100
O92         O  0.37577362  0.03468012  0.17769927    -0.82400
O93         O  0.37101527  0.99995453  0.13351937    -0.85100
C94         C  0.36012761  0.48927526  0.11173766     1.02700
O95         O  0.35010417  0.50728178  0.09878259    -0.77800
O96         O  0.28747007  0.00062901  0.11920444    -0.78000
C97         C  0.26731755  0.00649755  0.13348494     1.02600
O98         O  0.34022021  0.11066655  0.13787739    -0.85300
O99         O  0.37447638  0.09943607  0.17794868    -0.82400
C100        C  0.40699177  0.11704837  0.17046545     0.98200
O101        O  0.41737941  0.10422322  0.15331384    -0.82400
O102        O  0.41581214  0.06913328  0.11039739    -0.85000
C103        C  0.40944708  0.08518293  0.09309966     1.02600
O104        O  0.37865085  0.08314526  0.09116407    -0.77800
O105        O  0.31297909  0.07552658  0.10635189    -0.78000
C106        C  0.32778808  0.10673051  0.11619727     1.02600
Cr107      Cr  0.33005447  0.06683437  0.15824539     1.93700
Cr108      Cr  0.39193872  0.05217267  0.14337393     1.93200
Cr109      Cr  0.33354068  0.04239344  0.10602919     1.39100
O110        O  0.35196228  0.05354128  0.13593923    -1.23100
O111        O  0.28226379  0.24407420  0.02797251    -0.85300
O112        O  0.32377911  0.29735871  0.99394760    -0.82400
C113        C  0.34929663  0.32802753  0.98650696     0.98100
O114        O  0.38071710  0.34257614  0.99629250    -0.82400
O115        O  0.37509286  0.37077322  0.04107567    -0.85100
C116        C  0.36351257  0.36974899  0.06263945     1.02700
O117        O  0.35188113  0.34132043  0.07541575    -0.77800
O118        O  0.28835375  0.28671621  0.05346011    -0.78000
C119        C  0.26877119  0.26123433  0.03859714     1.02600
O120        O  0.34098052  0.22901111  0.03498763    -0.85300
O121        O  0.37733092  0.27501032  0.99554938    -0.82400
C122        C  0.40951463  0.28880901  0.00343278     0.98200
O123        O  0.41983128  0.31159187  0.02082640    -0.82400
O124        O  0.41794160  0.34322384  0.06401603    -0.85000
C125        C  0.41019492  0.32001562  0.08103644     1.02600
O126        O  0.37811143  0.29284534  0.08298125    -0.77800
O127        O  0.31259180  0.23615508  0.06617954    -0.78000
C128        C  0.32765583  0.22001038  0.05641861     1.02600
Cr129      Cr  0.33261457  0.26377646  0.01478421     1.93700
Cr130      Cr  0.39517144  0.33889227  0.03092284     1.93200
Cr131      Cr  0.33406120  0.28990423  0.06721705     1.39100
O132        O  0.35409071  0.29797462  0.03761214    -1.23100
O133        O  0.25995797  0.21711145  0.80925125    -0.85300
O134        O  0.20589130  0.17844650  0.84408774    -0.82400
C135        C  0.17461630  0.15432645  0.85173069     0.98100
O136        O  0.15838880  0.12212575  0.84267136    -0.82400
O137        O  0.12598437  0.11950746  0.79773237    -0.85100
C138        C  0.12765238  0.13547635  0.77777174     1.02700
O139        O  0.15686618  0.15272534  0.76594557    -0.77800
O140        O  0.21552240  0.21289268  0.78708839    -0.78000
C141        C  0.24309997  0.23193292  0.80048289     1.02600
O142        O  0.26828940  0.15498483  0.80163175    -0.85300
O143        O  0.22590342  0.12321028  0.84355918    -0.82400
C144        C  0.21181755  0.09049375  0.83675842     0.98200
O145        O  0.18820235  0.07901667  0.81999400    -0.82400
O146        O  0.15644626  0.07904165  0.77680095    -0.85000
C147        C  0.17508722  0.08890661  0.75722586     1.02600
O148        O  0.19942883  0.12183275  0.75345209    -0.77800
O149        O  0.26058843  0.18309123  0.77032715    -0.78000
C150        C  0.27601978  0.16712175  0.77981251     1.02600
Cr151      Cr  0.23703474  0.16659535  0.82284475     1.93700
Cr152      Cr  0.16072994  0.10352972  0.80888424     1.93200
Cr153      Cr  0.20763294  0.16617578  0.77170441     1.39100
O154        O  0.20107606  0.14501089  0.80097389    -1.23100
O155        O  0.45592604  0.21352156  0.69516486    -0.85300
O156        O  0.47181182  0.17613390  0.66026628    -0.82400
C157        C  0.47945407  0.15258593  0.65233757     0.98100
O158        O  0.46361119  0.12034091  0.66102267    -0.82400
O159        O  0.50024656  0.12633375  0.70453951    -0.85100
C160        C  0.00976454  0.13506386  0.72661083     1.02700
O161        O  0.99357853  0.14658542  0.74014932    -0.77800
O162        O  0.49547495  0.21013701  0.71916984    -0.78000
C163        C  0.48688183  0.22880258  0.70535958     1.02600
O164        O  0.38534818  0.14988400  0.70275019    -0.85300
O165        O  0.39727589  0.11701283  0.66208795    -0.82400
C166        C  0.38013015  0.08481856  0.67036738     0.98200
O167        O  0.39465429  0.07551358  0.68693221    -0.82400
O168        O  0.43246963  0.07933753  0.72855811    -0.85000
C169        C  0.41590032  0.08501138  0.74584490     1.02600
O170        O  0.41873117  0.11610061  0.74861200    -0.77800
O171        O  0.42083063  0.17900328  0.73385152    -0.78000
C172        C  0.38954724  0.16263786  0.72435186     1.02600
Cr173      Cr  0.42870071  0.16260493  0.68163395     1.93700
Cr174      Cr  0.44754662  0.10346583  0.69562330     1.93200
Cr175      Cr  0.45686389  0.16237356  0.73307649     1.39100
O176        O  0.44487570  0.14282213  0.70344805    -1.23100
O177        O  0.46172117  0.24054282  0.47692903    -0.85300
O178        O  0.47357621  0.29443368  0.51084813    -0.82400
C179        C  0.47901032  0.32550856  0.51765912     0.98100
O180        O  0.46102415  0.33900235  0.50804524    -0.82400
O181        O  0.49627413  0.36842688  0.46462146    -0.85100
C182        C  0.00770233  0.36505378  0.44335813     1.02700
O183        O  0.99240947  0.33758554  0.42956450    -0.77800
O184        O  0.50123380  0.28376544  0.45325101    -0.78000
C185        C  0.49367415  0.25804854  0.46830340     1.02600
O186        O  0.38945123  0.22815916  0.46839378    -0.85300
O187        O  0.39820487  0.27297245  0.50821182    -0.82400
C188        C  0.37873752  0.28494876  0.49942299     0.98200
O189        O  0.39117227  0.30738084  0.48187214    -0.82400
O190        O  0.42766982  0.34064057  0.43976021    -0.85000
C191        C  0.41477578  0.31851949  0.42191260     1.02600
O192        O  0.42126830  0.29242854  0.41968611    -0.77800
O193        O  0.42644710  0.23460872  0.43799572    -0.78000
C194        C  0.39490416  0.21886989  0.44740459     1.02600
Cr195      Cr  0.43173067  0.26141061  0.48942609     1.93700
Cr196      Cr  0.44413289  0.33582396  0.47319705     1.93200
Cr197      Cr  0.46028292  0.28831482  0.43759895     1.39100
O198        O  0.44579889  0.29575066  0.46664839    -1.23100
O199        O  0.25925709  0.03597668  0.36165925    -0.85300
O200        O  0.20334793  0.02215832  0.32983167    -0.82400
C201        C  0.17155161  0.01495612  0.32385639     0.98100
O202        O  0.15659019  0.03096401  0.33432715    -0.82400
O203        O  0.13488894  0.99828170  0.37893284    -0.85100
C204        C  0.13358940  0.48775257  0.40045742     1.02700
O205        O  0.16225389  0.50571478  0.41281992    -0.77800
O206        O  0.21983413  0.00025456  0.38928060    -0.78000
C207        C  0.24419607  0.00618335  0.37341868     1.02600
O208        O  0.27236071  0.10903382  0.36872714    -0.85300
O209        O  0.22207314  0.09717408  0.33206678    -0.82400
C210        C  0.20690496  0.11430214  0.34027072     0.98200
O211        O  0.18555818  0.10168205  0.35835337    -0.82400
O212        O  0.15882521  0.06772539  0.40234870    -0.85000
C213        C  0.18347652  0.08615833  0.41797481     1.02600
O214        O  0.21186466  0.08307908  0.41899553    -0.77800
O215        O  0.26921501  0.07542037  0.40031549    -0.78000
C216        C  0.28483040  0.10538551  0.38894721     1.02600
Cr217      Cr  0.23694176  0.06524477  0.34986260     1.93700
Cr218      Cr  0.16226655  0.04986660  0.36883837     1.93200
Cr219      Cr  0.21555261  0.04192559  0.40329227     1.39100
O220        O  0.20468634  0.05223601  0.37399181    -1.23100
O221        O  0.20557120  0.47870147  0.65828722    -0.85300
O222        O  0.14591293  0.44855548  0.68694888    -0.82400
C223        C  0.13670023  0.47284063  0.68520815     0.98100
O224        O  0.11953600  0.47379789  0.66655132    -0.82400
O225        O  0.10460816  0.47547243  0.61784250    -0.85100
C226        C  0.13728615  0.00629626  0.60996616     1.02700
O227        O  0.16339931  0.50248406  0.61055154    -0.77800
O228        O  0.21548956  0.48159134  0.61883017    -0.78000
C229        C  0.22734472  0.49125506  0.64055672     1.02600
O230        O  0.18613063  0.40858205  0.63588112    -0.85300
O231        O  0.12308761  0.37856465  0.66281040    -0.82400
C232        C  0.09172584  0.37140400  0.66944480     0.98200
O233        O  0.08174744  0.39488272  0.66620416    -0.82400
O234        O  0.07525929  0.39765420  0.61549825    -0.85000
C235        C  0.08414798  0.40538459  0.59318170     1.02600
O236        O  0.11498172  0.43279154  0.58760102    -0.77800
O237        O  0.16334027  0.41124063  0.60006302    -0.78000
C238        C  0.17871310  0.39889427  0.61351951     1.02600
Cr239      Cr  0.16353441  0.42930847  0.65912311     1.93700
Cr240      Cr  0.09832355  0.43558937  0.64125209     1.93200
Cr241      Cr  0.16275862  0.45604943  0.60657594     1.39100
O242        O  0.14144358  0.43982856  0.63557174    -1.23100
O243        O  0.22167942  0.25825741  0.53405272    -0.85300
O244        O  0.18450100  0.20748138  0.49728803    -0.82400
C245        C  0.16037334  0.17680861  0.48882516     0.98100
O246        O  0.12765100  0.16200371  0.49650843    -0.82400
O247        O  0.12773752  0.12831708  0.53961019    -0.85100
C248        C  0.14011445  0.12773136  0.56054695     1.02700
O249        O  0.15182881  0.15486326  0.57463990    -0.77800
O250        O  0.21565806  0.21242055  0.55537307    -0.78000
C251        C  0.23486845  0.23905676  0.54123745     1.02600
O252        O  0.16391943  0.27235041  0.54029013    -0.85300
O253        O  0.12978879  0.22972013  0.49831815    -0.82400
C254        C  0.09637231  0.21361203  0.50404601     0.98200
O255        O  0.08442790  0.18920800  0.52037333    -0.82400
O256        O  0.08361441  0.15434314  0.56289010    -0.85000
C257        C  0.09107322  0.17470322  0.58164796     1.02600
O258        O  0.12339312  0.20056544  0.58554028    -0.77800
O259        O  0.18832923  0.26069269  0.57224605    -0.78000
C260        C  0.17687516  0.27989487  0.56196593     1.02600
Cr261      Cr  0.17299727  0.23903333  0.51886774     1.93700
Cr262      Cr  0.10921408  0.16185703  0.53055559     1.93200
Cr263      Cr  0.16860971  0.20685480  0.56956544     1.39100
O264        O  0.14964900  0.20233269  0.53981491    -1.23100
C265        C  0.16756891  0.10182943  0.58779768    -0.12200
C266        C  0.14078001  0.09545086  0.57017039     0.04800
C267        C  0.11301456  0.05918098  0.56542191    -0.07500
C268        C  0.11157661  0.03049392  0.57925791    -0.08300
C269        C  0.13774211  0.03732796  0.59748079    -0.02800
C270        C  0.16622479  0.07338086  0.60146435     0.04000
N271        N  0.19299790  0.08192388  0.62017080     0.66500
H272        H  0.18931153  0.12955341  0.59167368     0.15400
H273        H  0.09013725  0.00259844  0.57549617     0.15100
N274        N  0.08557847  0.05106556  0.54729675     0.74200
O275        O  0.22452807  0.08866602  0.61401544    -0.39300
O276        O  0.18864224  0.09288889  0.64081311    -0.39200
O277        O  0.08816838  0.03891723  0.52662790    -0.39900
O278        O  0.05533326  0.04761024  0.55377728    -0.40000
C279        C  0.17214706  0.33772961  0.61378814    -0.12200
C280        C  0.18641121  0.37173667  0.60251320     0.04800
C281        C  0.19991635  0.37645121  0.57826002    -0.07500
C282        C  0.19602278  0.34623725  0.56488122    -0.08300
C283        C  0.17999366  0.31152803  0.57582007    -0.02800
C284        C  0.16896900  0.30774789  0.60076445     0.04000
N285        N  0.15050772  0.27283134  0.61237205     0.66500
H286        H  0.16084532  0.33370563  0.63219094     0.15400
H287        H  0.20601012  0.34997201  0.54614419     0.15100
N288        N  0.21767299  0.41197706  0.56723419     0.74200
O289        O  0.16827116  0.26358994  0.62637983    -0.39300
O290        O  0.11625254  0.25727859  0.61461667    -0.39200
O291        O  0.24626590  0.43747254  0.57691046    -0.39900
O292        O  0.20178222  0.41932965  0.55045712    -0.40000
C293        C  0.14311673  0.13834398  0.45122742    -0.12200
C294        C  0.16919320  0.15734354  0.46947733     0.04800
C295        C  0.20058628  0.15357178  0.47032943    -0.07500
C296        C  0.20497334  0.13090610  0.45326886    -0.08300
C297        C  0.17830773  0.11097853  0.43532807    -0.02800
C298        C  0.14709558  0.11542352  0.43437623     0.04000
N299        N  0.11830402  0.09610838  0.41702827     0.66500
H300        H  0.11860835  0.14058207  0.45036853     0.15400
H301        H  0.22917425  0.12821600  0.45456076     0.15100
N302        N  0.22706124  0.17041637  0.48937682     0.74200
O303        O  0.09149885  0.06557485  0.42307004    -0.39300
O304        O  0.11460090  0.11350623  0.39949816    -0.39200
O305        O  0.22500836  0.15195885  0.50815367    -0.39900
O306        O  0.25689369  0.19888303  0.48449222    -0.40000
C307        C  0.51527420  0.32807975  0.55485250    -0.12200
C308        C  0.50625146  0.34650428  0.53716474     0.04800
C309        C  0.00532817  0.32443265  0.56081933    -0.07500
C310        C  0.03158455  0.34623059  0.57844316    -0.08300
C311        C  0.05769178  0.38299656  0.57361777    -0.02800
C312        C  0.05717198  0.39775604  0.55039220     0.04000
N313        N  0.08292253  0.43475585  0.54412610     0.66500
H314        H  0.50216138  0.29840636  0.55437756     0.15400
H315        H  0.03153964  0.33418268  0.59612805     0.15100
N316        N  0.97923783  0.28739990  0.56679191     0.74200
O317        O  0.52812675  0.31335735  0.60950262    -0.39300
O318        O  0.07322906  0.45855065  0.54515328    -0.39200
O319        O  0.98899889  0.26362797  0.56643061    -0.39900
O320        O  0.95062084  0.28070251  0.57832800    -0.40000
C321        C  0.07221213  0.41361074  0.44590963    -0.12200
C322        C  0.03893579  0.39804625  0.43349642     0.04800
C323        C  0.03674501  0.41198822  0.41041762    -0.07500
C324        C  0.06785239  0.44112581  0.40016114    -0.08300
C325        C  0.10170348  0.45626557  0.41201647    -0.02800
C326        C  0.10369168  0.44222474  0.43535110     0.04000
N327        N  0.13737030  0.45590188  0.44838544     0.66500
H328        H  0.07409371  0.40250184  0.46354664     0.15400
H329        H  0.06521512  0.45221341  0.38272713     0.15100
N330        N  0.00300658  0.39714583  0.39729828     0.74200
O331        O  0.14480589  0.47898460  0.46536264    -0.39300
O332        O  0.15448820  0.43856952  0.44726938    -0.39200
O333        O  0.98477703  0.41334844  0.39833540    -0.39900
O334        O  0.99685046  0.37470298  0.38010201    -0.40000
C335        C  0.31176224  0.16603602  0.40756205    -0.12200
C336        C  0.31567523  0.13622110  0.40096845     0.04800
C337        C  0.34531072  0.13343093  0.41018877    -0.07500
C338        C  0.37019284  0.16017072  0.42610048    -0.08300
C339        C  0.36552088  0.18928129  0.43345406    -0.02800
C340        C  0.33635302  0.19251168  0.42379122     0.04000
N341        N  0.33189468  0.22298402  0.42952654     0.66500
H342        H  0.28862952  0.16802800  0.40085912     0.15400
H343        H  0.39350414  0.15835493  0.43262196     0.15100
N344        N  0.35135107  0.10445484  0.40285513     0.74200
O345        O  0.33833015  0.24633025  0.41298770    -0.39300
O346        O  0.31103719  0.22006304  0.44703582    -0.39200
O347        O  0.37444014  0.11056836  0.38612689    -0.39900
O348        O  0.34255597  0.07804288  0.41737301    -0.40000
C349        C  0.51183308  0.22653498  0.49876803    -0.12200
C350        C  0.02322178  0.24683529  0.47294308     0.04800
C351        C  0.06057464  0.27262583  0.47674636    -0.07500
C352        C  0.08421645  0.26103680  0.48602930    -0.08300
C353        C  0.07146528  0.22409008  0.49177148    -0.02800
C354        C  0.03465776  0.19820293  0.48666055     0.04000
N355        N  0.02099413  0.15988918  0.48960985     0.66500
H356        H  0.48708386  0.21990461  0.50888518     0.15400
H357        H  0.11248429  0.28140581  0.48977839     0.15100
N358        N  0.07444510  0.31083746  0.47305892     0.74200
O359        O  0.53326656  0.21183470  0.55112040    -0.39300
O360        O  0.02287082  0.14187774  0.47169481    -0.39200
O361        O  0.07664645  0.33054394  0.49118444    -0.39900
O362        O  0.09268007  0.32587167  0.45390361    -0.40000
C363        C  0.28394646  0.27179084  0.51069627    -0.12200
C364        C  0.27183478  0.24900072  0.53158199     0.04800
C365        C  0.29496984  0.23703154  0.54138610    -0.07500
C366        C  0.32964582  0.24917300  0.53076161    -0.08300
C367        C  0.34178483  0.27264619  0.51010495    -0.02800
C368        C  0.31783509  0.28315792  0.49983862     0.04000
N369        N  0.32667195  0.30443897  0.47786767     0.66500
H370        H  0.26644918  0.28050930  0.50200659     0.15400
H371        H  0.34720953  0.24006520  0.53884237     0.15100
N372        N  0.28424366  0.21322628  0.56217210     0.74200
O373        O  0.31464018  0.28833970  0.45757630    -0.39300
O374        O  0.33752084  0.33816471  0.47943493    -0.39200
O375        O  0.27288977  0.17963365  0.55886067    -0.39900
O376        O  0.29489148  0.22677259  0.58330214    -0.40000
C377        C  0.50025464  0.13444806  0.61521599    -0.12200
C378        C  0.50660213  0.16161211  0.63248351     0.04800
C379        C  0.04454975  0.17274615  0.64182360    -0.07500
C380        C  0.07105810  0.17805316  0.62428366    -0.08300
C381        C  0.06161274  0.16748222  0.59970602    -0.02800
C382        C  0.02418678  0.15026669  0.59306807     0.04000
N383        N  0.01268117  0.13996748  0.56827473     0.66500
H384        H  0.47439509  0.10891897  0.61526689     0.15400
H385        H  0.09940097  0.19051418  0.63005928     0.15100
N386        N  0.05586614  0.18409881  0.66652909     0.74200
O387        O  0.51508316  0.08105279  0.58726433    -0.39300
O388        O  0.00360579  0.15933164  0.55582842    -0.39200
O389        O  0.06598494  0.16602332  0.67948911    -0.39900
O390        O  0.06569445  0.21659433  0.67254603    -0.40000
C391        C  0.05188166  0.27771553  0.70056348    -0.12200
C392        C  0.01429710  0.26474610  0.69862810     0.04800
C393        C  0.00278423  0.28842584  0.68879363    -0.07500
C394        C  0.02856887  0.32316768  0.68026286    -0.08300
C395        C  0.06608577  0.33538972  0.68084912    -0.02800
C396        C  0.07774192  0.31239212  0.69166325     0.04000
N397        N  0.11560242  0.32369618  0.69393683     0.66500
H398        H  0.06142805  0.26022326  0.70832503     0.15400
H399        H  0.01881174  0.34038377  0.67234146     0.15100
N400        N  0.46342912  0.28183412  0.69126183     0.74200
O401        O  0.13175747  0.33767475  0.71391815    -0.39300
O402        O  0.12963417  0.31116690  0.67911727    -0.39200
O403        O  0.45142430  0.29261038  0.70870627    -0.39900
O404        O  0.44518140  0.27076232  0.67163659    -0.40000
C405        C  0.33140614  0.06414714  0.63773194    -0.12200
C406        C  0.34274192  0.05861772  0.66093649     0.04800
C407        C  0.31703883  0.02936194  0.67552152    -0.07500
C408        C  0.27750729  0.51243344  0.67076980    -0.08300
C409        C  0.26922380  0.01382715  0.64464397    -0.02800
C410        C  0.29522947  0.04179788  0.62932663     0.04000
N411        N  0.28536748  0.04884257  0.60571263     0.66500
H412        H  0.35072123  0.08629524  0.62605133     0.15400
H413        H  0.25762570  0.49349949  0.68388103     0.15100
N414        N  0.32116933  0.53155803  0.70414661     0.74200
O415        O  0.28027682  0.07563834  0.60319765    -0.39300
O416        O  0.29190404  0.03553716  0.58689573    -0.39200
O417        O  0.31292424  0.54784879  0.72018622    -0.39900
O418        O  0.32685284  0.50619396  0.71073446    -0.40000
C419        C  0.16603023  0.02803646  0.74540270    -0.12200
C420        C  0.16758589  0.06078360  0.73842786     0.04800
C421        C  0.15973913  0.06510255  0.71393741    -0.07500
C422        C  0.15077146  0.03697863  0.69699211    -0.08300
C423        C  0.14680273  0.50161273  0.70424527    -0.02800
C424        C  0.15337504  0.49732748  0.72915489     0.04000
N425        N  0.15137124  0.46446588  0.73781010     0.66500
H426        H  0.17163302  0.02428060  0.76437758     0.15400
H427        H  0.14464562  0.04103024  0.67822360     0.15100
N428        N  0.15816108  0.09669493  0.70636421     0.74200
O429        O  0.18033385  0.46286594  0.73926787    -0.39300
O430        O  0.12348701  0.44170021  0.74963356    -0.39200
O431        O  0.18336352  0.12035535  0.69305749    -0.39900
O432        O  0.12805337  0.09611411  0.70747415    -0.40000
C433        C  0.09854122  0.16759822  0.75973852    -0.12200
C434        C  0.09549988  0.13429538  0.76676122     0.04800
C435        C  0.06564230  0.10121739  0.75828070    -0.07500
C436        C  0.03905807  0.10212031  0.74346199    -0.08300
C437        C  0.04181335  0.13548833  0.73699195    -0.02800
C438        C  0.07188267  0.16847927  0.74518839     0.04000
N439        N  0.07606298  0.20308127  0.73848782     0.66500
H440        H  0.12225076  0.19327072  0.76533082     0.15400
H441        H  0.01551850  0.07653602  0.73756898     0.15100
N442        N  0.06272296  0.06674613  0.76366769     0.74200
O443        O  0.06587394  0.21922985  0.75331321    -0.39300
O444        O  0.09797353  0.22117807  0.72144483    -0.39200
O445        O  0.04101879  0.04691713  0.78029908    -0.39900
O446        O  0.07425579  0.05258338  0.74819340    -0.40000
C447        C  0.33021958  0.16065646  0.72622110    -0.12200
C448        C  0.35900980  0.16050739  0.73859486     0.04800
C449        C  0.35928661  0.16057516  0.76467320    -0.07500
C450        C  0.33171245  0.16221962  0.77759657    -0.08300
C451        C  0.30373065  0.16396424  0.76529587    -0.02800
C452        C  0.30286224  0.16278101  0.73921023     0.04000
N453        N  0.27439633  0.16337979  0.72548269     0.66500
H454        H  0.32957500  0.16046415  0.70623127     0.15400
H455        H  0.33299389  0.16341755  0.79756577     0.15100
N456        N  0.38731248  0.15911933  0.77845205     0.74200
O457        O  0.27899993  0.19369161  0.71802166    -0.39300
O458        O  0.25103363  0.13442819  0.71491272    -0.39200
O459        O  0.41372776  0.18855009  0.78647355    -0.39900
O460        O  0.38023185  0.12939389  0.78852998    -0.40000
C461        C  0.36488692  0.45914841  0.07398109    -0.12200
C462        C  0.36173679  0.45872214  0.09980499     0.04800
C463        C  0.36037580  0.42953759  0.11305889    -0.07500
C464        C  0.36143515  0.40137819  0.10037767    -0.08300
C465        C  0.36428635  0.40159816  0.07451967    -0.02800
C466        C  0.36675495  0.43134817  0.06131081     0.04000
N467        N  0.37056247  0.43360658  0.03515836     0.66500
H468        H  0.36612447  0.48152544  0.06335985     0.15400
H469        H  0.35988860  0.37893348  0.11109865     0.15100
N470        N  0.35651716  0.42720549  0.13920513     0.74200
O471        O  0.34278338  0.42438898  0.02192656    -0.39300
O472        O  0.40198239  0.45216318  0.02582778    -0.39200
O473        O  0.32515976  0.40791966  0.14846978    -0.39900
O474        O  0.38434762  0.43636765  0.15236936    -0.40000
C475        C  0.32840961  0.13393264  0.07549777    -0.12200
C476        C  0.33009998  0.13738862  0.10139911     0.04800
C477        C  0.33344585  0.16940687  0.11193763    -0.07500
C478        C  0.33273957  0.19583247  0.09680154    -0.08300
C479        C  0.32975947  0.19166871  0.07106220    -0.02800
C480        C  0.32856669  0.16083174  0.06036876     0.04000
N481        N  0.32633847  0.15589404  0.03429821     0.66500
H482        H  0.32674684  0.11001134  0.06683757     0.13000
H483        H  0.33467430  0.21998086  0.10532735     0.15100
N484        N  0.33692176  0.17539474  0.13788440     0.74200
O485        O  0.35513736  0.16594808  0.02197385    -0.39300
O486        O  0.29663799  0.14650920  0.02332397    -0.39200
O487        O  0.36821537  0.19571765  0.14693219    -0.39900
O488        O  0.30898581  0.16830960  0.15040530    -0.40000
C489        C  0.42813606  0.31248890  0.12350706    -0.12200
C490        C  0.43876981  0.32598093  0.09952078     0.04800
C491        C  0.47669876  0.34614429  0.09405911    -0.07500
C492        C  0.00509209  0.35309838  0.11162956    -0.08300
C493        C  0.99424942  0.34103132  0.13570373    -0.02800
C494        C  0.45416833  0.32011343  0.14198296     0.04000
N495        N  0.44182794  0.30665893  0.16626175     0.66500
H496        H  0.39930362  0.29685007  0.12823240     0.15400
H497        H  0.03402802  0.36852432  0.10714200     0.15100
N498        N  0.48967337  0.36001805  0.06999532     0.74200
O499        O  0.43168456  0.32379791  0.18022374    -0.39300
O500        O  0.43281306  0.27406521  0.17137266    -0.39200
O501        O  0.49836909  0.39260513  0.06515514    -0.39900
O502        O  0.00345350  0.34343135  0.05607304    -0.40000
C503        C  0.44791185  0.20723097  0.20600853    -0.12200
C504        C  0.48330204  0.22507168  0.19638164     0.04800
C505        C  0.99457008  0.21103462  0.17737909    -0.07500
C506        C  0.46943920  0.17050067  0.17324215    -0.08300
C507        C  0.43310184  0.15303158  0.18144506    -0.02800
C508        C  0.42259981  0.17150502  0.19861897     0.04000
N509        N  0.38614803  0.15536192  0.20789784     0.66500
H510        H  0.43925708  0.22178989  0.21828781     0.15400
H511        H  0.97718554  0.16446296  0.15430181     0.15100
N512        N  0.02828307  0.23076972  0.16422871     0.74200
O513        O  0.37907104  0.14055346  0.22884255    -0.39300
O514        O  0.36437590  0.16417460  0.19848276    -0.39200
O515        O  0.05437606  0.22553414  0.16948290    -0.39900
O516        O  0.02877962  0.24563609  0.14400550    -0.40000
C517        C  0.21972260  0.44312075  0.14199990    -0.12200
C518        C  0.23027288  0.48031430  0.14152361     0.04800
C519        C  0.20181149  0.98686390  0.14289459    -0.07500
C520        C  0.17029289  0.46458341  0.15764052    -0.08300
C521        C  0.16022174  0.42760964  0.15928727    -0.02800
C522        C  0.18521997  0.41679682  0.15087645     0.04000
N523        N  0.17618547  0.37934333  0.15112713     0.66500
H524        H  0.23892070  0.43449789  0.13633107     0.15400
H525        H  0.14765093  0.96872415  0.15585538     0.15100
N526        N  0.20747249  0.02231711  0.13706488     0.74200
O527        O  0.16303943  0.36021335  0.13200596    -0.39300
O528        O  0.18932066  0.36840896  0.16769606    -0.39200
O529        O  0.19614308  0.02710684  0.11673362    -0.39900
O530        O  0.21500779  0.04536532  0.15407839    -0.40000
C531        C  0.16797717  0.48643795  0.28345804    -0.12200
C532        C  0.14828589  0.49156740  0.30236951     0.04800
C533        C  0.10961719  0.47101608  0.30171513    -0.07500
C534        C  0.09183061  0.44549503  0.28296790    -0.08300
C535        C  0.11145637  0.44040693  0.26415233    -0.02800
C536        C  0.14999123  0.46158247  0.26424624     0.04000
N537        N  0.17130854  0.45719099  0.24558722     0.66500
H538        H  0.20031848  0.00480259  0.28220082     0.15400
H539        H  0.06211210  0.42957533  0.28304642     0.15100
N540        N  0.08780900  0.47434940  0.32048073     0.74200
O541        O  0.18306489  0.47933350  0.22780896    -0.39300
O542        O  0.18560983  0.43776459  0.24996604    -0.39200
O543        O  0.07310460  0.97620554  0.32635599    -0.39900
O544        O  0.07478636  0.45049655  0.33719126    -0.40000
C545        C  0.37008607  0.32365573  0.36235822    -0.12200
C546        C  0.34855928  0.33834370  0.37055752     0.04800
C547        C  0.34733400  0.34441011  0.39596231    -0.07500
C548        C  0.36935145  0.33796987  0.41218983    -0.08300
C549        C  0.39144113  0.32386437  0.40386394    -0.02800
C550        C  0.39080090  0.31575254  0.37864409     0.04000
N551        N  0.41176380  0.30054000  0.36900813     0.66500
H552        H  0.37094756  0.31830473  0.34289303     0.15400
H553        H  0.36911448  0.34404182  0.43156259     0.15100
N554        N  0.32514019  0.35825764  0.40555323     0.74200
O555        O  0.39684688  0.26626536  0.36686653    -0.39300
O556        O  0.44005886  0.32064708  0.35657921    -0.39200
O557        O  0.29506302  0.33632269  0.41559097    -0.39900
O558        O  0.33962667  0.39199594  0.41011612    -0.40000
C559        C  0.36115304  0.47298504  0.20726164    -0.12200
C560        C  0.33885871  0.48903868  0.20673638     0.04800
C561        C  0.30714455  0.97466165  0.22234350    -0.07500
C562        C  0.30467867  0.45000060  0.24140486    -0.08300
C563        C  0.32682681  0.43395179  0.24154808    -0.02800
C564        C  0.35520208  0.44557482  0.22418252     0.04000
N565        N  0.37924207  0.43093108  0.22414962     0.66500
H566        H  0.38339954  0.48148913  0.19421324     0.15400
H567        H  0.28274187  0.44126953  0.25474488     0.15100
N568        N  0.28101100  0.98666838  0.22194401     0.74200
O569        O  0.37316085  0.40512069  0.20966259    -0.39300
O570        O  0.41007927  0.44863582  0.23437391    -0.39200
O571        O  0.25218758  0.96896644  0.20947043    -0.39900
O572        O  0.28274398  0.00919851  0.23791179    -0.40000
C573        C  0.42743674  0.32566750  0.24139571    -0.12200
C574        C  0.46057850  0.35865025  0.24043936     0.04800
C575        C  0.46216878  0.39036724  0.25034891    -0.07500
C576        C  0.43134033  0.38798145  0.26196783    -0.08300
C577        C  0.39805914  0.35460614  0.26330625    -0.02800
C578        C  0.39627812  0.32339138  0.25207795     0.04000
N579        N  0.36318573  0.28901113  0.25077776     0.66500
H580        H  0.42535858  0.30118568  0.23327456     0.15400
H581        H  0.43355213  0.41259546  0.26988874     0.15100
N582        N  0.49490521  0.42511433  0.24904994     0.74200
O583        O  0.33980161  0.28463780  0.23472116    -0.39300
O584        O  0.36312334  0.26118947  0.25922968    -0.39200
O585        O  0.98197890  0.42969624  0.20971190    -0.39900
O586        O  0.51943737  0.43403481  0.26510638    -0.40000
C587        C  0.15013688  0.30528748  0.22849806    -0.12200
C588        C  0.12417312  0.30863852  0.24233019     0.04800
C589        C  0.12559146  0.30751210  0.26837432    -0.07500
C590        C  0.15512295  0.30718527  0.27989627    -0.08300
C591        C  0.18293290  0.30696172  0.26591687    -0.02800
C592        C  0.17915899  0.30423606  0.23992105     0.04000
N593        N  0.20500058  0.30118807  0.22461775     0.66500
H594        H  0.14903702  0.30531109  0.20856345     0.15400
H595        H  0.15690052  0.30839390  0.29979585     0.15100
N596        N  0.09751983  0.30724302  0.28332136     0.74200
O597        O  0.19807713  0.26988721  0.21754660    -0.39300
O598        O  0.22866181  0.32905975  0.21320328    -0.39200
O599        O  0.06503620  0.28112075  0.28164999    -0.39900
O600        O  0.10448243  0.33464086  0.29646388    -0.40000
C601        C  0.24314131  0.16496688  0.31076716    -0.12200
C602        C  0.21536536  0.14963035  0.32865171     0.04800
C603        C  0.19872309  0.16994722  0.33617134    -0.07500
C604        C  0.21148705  0.20521063  0.32699696    -0.08300
C605        C  0.24070318  0.22122644  0.31035100    -0.02800
C606        C  0.25601359  0.20043234  0.30177329     0.04000
N607        N  0.28776839  0.21640152  0.28668001     0.66500
H608        H  0.25669109  0.15024169  0.30467301     0.15400
H609        H  0.19926063  0.22089823  0.33374985     0.15100
N610        N  0.16991766  0.15612529  0.35385049     0.74200
O611        O  0.31834335  0.22737585  0.29682875    -0.39300
O612        O  0.28439249  0.20935953  0.26396172    -0.39200
O613        O  0.17696849  0.16845123  0.37551934    -0.39900
O614        O  0.13724937  0.14012837  0.34644157    -0.40000
C615        C  0.29512123  0.46259532  0.34554192    -0.12200
C616        C  0.26998414  0.42518890  0.34735898     0.04800
C617        C  0.23591905  0.41403596  0.35887904    -0.07500
C618        C  0.22738666  0.44033274  0.36759522    -0.08300
C619        C  0.25209821  0.47795690  0.36479998    -0.02800
C620        C  0.29077933  0.98969180  0.35851166     0.04000
N621        N  0.31932444  0.02700076  0.35896765     0.66500
H622        H  0.32131979  0.47177531  0.33676649     0.15400
H623        H  0.20090965  0.43124274  0.37586908     0.15100
N624        N  0.20964668  0.37611173  0.36181875     0.74200
O625        O  0.34370039  0.03667413  0.37521633    -0.39300
O626        O  0.32648883  0.04573591  0.33956570    -0.39200
O627        O  0.21557711  0.35691419  0.37683285    -0.39900
O628        O  0.18242198  0.36100341  0.34763486    -0.40000
C629        C  0.35932368  0.05046940  0.77090526    -0.12200
C630        C  0.39289721  0.05480655  0.76299768     0.04800
C631        C  0.40368504  0.03010718  0.77166593    -0.07500
C632        C  0.38255965  0.00401790  0.78945065    -0.08300
C633        C  0.35163242  0.50391931  0.79992549    -0.02800
C634        C  0.33758834  0.02356759  0.78815243     0.04000
N635        N  0.30440880  0.02137289  0.79628933     0.66500
H636        H  0.34988229  0.06826063  0.76367700     0.15400
H637        H  0.39670750  0.49349921  0.79947457     0.15100
N638        N  0.43667353  0.03197869  0.76338169     0.74200
O639        O  0.30574956  0.04307506  0.81277120    -0.39300
O640        O  0.27625933  0.50529582  0.78540157    -0.39200
O641        O  0.46479043  0.04734228  0.77675624    -0.39900
O642        O  0.43517411  0.01100314  0.74629984    -0.40000
C643        C  0.27080782  0.05457866  0.86447584    -0.12200
C644        C  0.24581407  0.01718873  0.86608423     0.04800
C645        C  0.21018056  0.50292477  0.85510344    -0.07500
C646        C  0.19804405  0.02823565  0.85083980    -0.08300
C647        C  0.22332199  0.06584182  0.84836001    -0.02800
C648        C  0.25987076  0.07901099  0.85607970     0.04000
N649        N  0.28706366  0.11666056  0.85369250     0.66500
H650        H  0.29937254  0.06468455  0.86867021     0.15400
H651        H  0.17120099  0.51492488  0.83868483     0.15100
N652        N  0.18625354  0.46420679  0.85367872     0.74200
O653        O  0.29471146  0.13742035  0.87211977    -0.39300
O654        O  0.30971002  0.12612958  0.83626345    -0.39200
O655        O  0.17300368  0.44612269  0.87316974    -0.39900
O656        O  0.18430689  0.44755552  0.83395045    -0.40000
C657        C  0.23190654  0.28472026  0.80284909    -0.12200
C658        C  0.25548320  0.27087180  0.80677819     0.04800
C659        C  0.28960850  0.29394387  0.81835145    -0.07500
C660        C  0.29813605  0.32869173  0.82680699    -0.08300
C661        C  0.27372579  0.34176394  0.82403322    -0.02800
C662        C  0.24071462  0.31975946  0.81106591     0.04000
N663        N  0.21662472  0.33309265  0.80493817     0.66500
H664        H  0.20594509  0.26796881  0.79350755     0.15400
H665        H  0.32397419  0.34528413  0.83633302     0.15100
N666        N  0.31606835  0.28270411  0.82182212     0.74200
O667        O  0.22400183  0.35368712  0.78647986    -0.39300
O668        O  0.18420070  0.31626259  0.81279925    -0.39200
O669        O  0.34253554  0.29380990  0.80702064    -0.39900
O670        O  0.31813731  0.27014529  0.84242276    -0.40000
C671        C  0.36279926  0.38837522  0.93086807    -0.12200
C672        C  0.33033584  0.38969731  0.93102169     0.04800
C673        C  0.30367838  0.36971363  0.94908357    -0.07500
C674        C  0.30971844  0.34853871  0.96630211    -0.08300
C675        C  0.34258383  0.34784548  0.96650029    -0.02800
C676        C  0.36943513  0.36832925  0.94860221     0.04000
N677        N  0.40341666  0.36871548  0.94794042     0.66500
H678        H  0.38356128  0.40365545  0.91709459     0.15400
H679        H  0.28898011  0.33342598  0.98012580     0.15100
N680        N  0.27012357  0.37012906  0.94999305     0.74200
O681        O  0.40687304  0.34685505  0.93386191    -0.39300
O682        O  0.43161037  0.39577763  0.95675654    -0.39200
O683        O  0.24171181  0.34364394  0.94091717    -0.39900
O684        O  0.26697775  0.39124401  0.96497343    -0.40000
C685        C  0.48461227  0.10991878  0.04615585    -0.12200
C686        C  0.49506350  0.14627911  0.04059158     0.04800
C687        C  0.47706273  0.16256137  0.05264435    -0.07500
C688        C  0.44862004  0.14199366  0.06930483    -0.08300
C689        C  0.43841782  0.10569342  0.07477988    -0.02800
C690        C  0.45700406  0.08978044  0.06321308     0.04000
N691        N  0.44692332  0.05253841  0.06755902     0.66500
H692        H  0.49779034  0.09674850  0.03693012     0.15400
H693        H  0.43476156  0.15465037  0.07829651     0.15100
N694        N  0.98031366  0.20041046  0.04198763     0.74200
O695        O  0.42553269  0.02830879  0.05269100    -0.39300
O696        O  0.46647425  0.04562915  0.08156294    -0.39200
O697        O  0.95883856  0.20262548  0.02690871    -0.39900
O698        O  0.00012370  0.22752930  0.05549995    -0.40000
C699        C  0.13153611  0.19817097  0.89072965    -0.12200
C700        C  0.11510095  0.17224073  0.90959007     0.04800
C701        C  0.12052037  0.14177694  0.90996581    -0.07500
C702        C  0.14037334  0.13700659  0.89109025    -0.08300
C703        C  0.15652411  0.16265851  0.87214167    -0.02800
C704        C  0.15270978  0.19408247  0.87236729     0.04000
N705        N  0.16886781  0.22134006  0.85365113     0.66500
H706        H  0.12803036  0.22199624  0.89030360     0.15400
H707        H  0.14319543  0.11276872  0.89125800     0.15100
N708        N  0.10489795  0.11450663  0.92871278     0.74200
O709        O  0.14991996  0.21986706  0.83531295    -0.39300
O710        O  0.19775857  0.25093157  0.85843309    -0.39200
O711        O  0.07765842  0.08390233  0.92343650    -0.39900
O712        O  0.12457843  0.11632613  0.94665466    -0.40000
C713        C  0.43143704  0.10140951  0.92388568    -0.12200
C714        C  0.46062725  0.09702277  0.93196487     0.04800
C715        C  0.45959874  0.06376714  0.92641722    -0.07500
C716        C  0.42973804  0.03594639  0.91378392    -0.08300
C717        C  0.40033253  0.04011338  0.90619982    -0.02800
C718        C  0.40173848  0.07370681  0.91103695     0.04000
N719        N  0.37400377  0.08082355  0.90235886     0.66500
H720        H  0.43168729  0.12689892  0.92727681     0.15400
H721        H  0.42951992  0.01052256  0.91013858     0.15100
N722        N  0.99656273  0.07006445  0.92166941     0.74200
O723        O  0.34952071  0.07786127  0.91703752    -0.39300
O724        O  0.37942976  0.09878157  0.88274800    -0.39200
O725        O  0.99982543  0.05015828  0.93757597    -0.39900
O726        O  0.01670355  0.07962763  0.90283010    -0.40000
C727        C  0.18603899  0.37546873  0.93306042    -0.12200
C728        C  0.18791662  0.37392529  0.90724886     0.04800
C729        C  0.15902040  0.34481279  0.89459930    -0.07500
C730        C  0.13049401  0.31693626  0.90783694    -0.08300
C731        C  0.13032739  0.31657325  0.93370914    -0.02800
C732        C  0.15782077  0.34703117  0.94639008     0.04000
N733        N  0.15911317  0.34851858  0.97263041     0.66500
H734        H  0.20779406  0.39808814  0.94318067     0.15400
H735        H  0.10925878  0.29408517  0.89756282     0.15100
N736        N  0.16036541  0.34038503  0.86869372     0.74200
O737        O  0.17739154  0.33695940  0.98393164    -0.39300
O738        O  0.15023152  0.36922259  0.98367585    -0.39200
O739        O  0.16795295  0.31682274  0.86088668    -0.39900
O740        O  0.14455199  0.35178335  0.85458404    -0.40000
C741        C  0.46979271  0.29256145  0.00346608    -0.12200
C742        C  0.43524105  0.27794769  0.99282296     0.04800
C743        C  0.42583470  0.25198990  0.97357565    -0.07500
C744        C  0.45052062  0.24034674  0.96641497    -0.08300
C745        C  0.48435922  0.25386734  0.97832214    -0.02800
C746        C  0.99717641  0.28765375  0.99310183     0.04000
N747        N  0.03240479  0.30442327  0.00444010     0.66500
H748        H  0.47816056  0.31319068  0.01787793     0.15400
H749        H  0.44258682  0.21959861  0.95223366     0.15100
N750        N  0.39119715  0.23664695  0.96155374     0.74200
O751        O  0.05736431  0.33467083  0.99630801    -0.39300
O752        O  0.03544600  0.29453318  0.02576845    -0.39200
O753        O  0.36449519  0.20739291  0.96953386    -0.39900
O754        O  0.38600659  0.25481816  0.94526680    -0.40000
C755        C  0.17929879  0.26115980  0.02713750    -0.12200
C756        C  0.15899213  0.22778776  0.01450983     0.04800
C757        C  0.17412547  0.20493134  0.01177026    -0.07500
C758        C  0.20877137  0.21574926  0.02118885    -0.08300
C759        C  0.22992719  0.24970225  0.03298251    -0.02800
C760        C  0.21442373  0.27228764  0.03636434     0.04000
N761        N  0.23435293  0.30719571  0.04799285     0.66500
H762        H  0.16813259  0.27925024  0.02940896     0.15400
H763        H  0.21987212  0.19776207  0.01808609     0.15100
N764        N  0.15693226  0.17292821  0.99677730     0.74200
O765        O  0.25234847  0.33531702  0.03490137    -0.39300
O766        O  0.22657079  0.31081897  0.06984233    -0.39200
O767        O  0.16763719  0.17507026  0.97486431    -0.39900
O768        O  0.13925660  0.14194230  0.00683919    -0.40000
O769        O  0.02312922  0.73486077  0.99211913    -0.85300
O770        O  0.04620300  0.69947922  0.02081458    -0.82400
C771        C  0.02093977  0.66611772  0.01976988     0.98100
O772        O  0.01840082  0.64662767  0.00142275    -0.82400
O773        O  0.01625575  0.62789528  0.95249191    -0.85100
C774        C  0.49435556  0.63177367  0.94330343     1.02700
O775        O  0.49604466  0.66237719  0.94360828    -0.77800
O776        O  0.01692256  0.73573508  0.95224741    -0.78000
C777        C  0.00985810  0.74189504  0.97383197     1.02600
O778        O  0.09364944  0.77822461  0.96907231    -0.85300
O779        O  0.11785625  0.74042843  0.99601124    -0.82400
C780        C  0.12273990  0.71518876  0.00361858     0.98200
O781        O  0.09730525  0.68226327  0.00137730    -0.82400
O782        O  0.09409096  0.67123624  0.95071813    -0.85000
C783        C  0.08822673  0.67418422  0.92829589     1.02600
O784        O  0.06284409  0.68050486  0.92203499    -0.77800
O785        O  0.08661622  0.75087932  0.93346918    -0.78000
C786        C  0.10178158  0.77919430  0.94648939     1.02600
Cr787      Cr  0.06933607  0.73546701  0.99264956     1.93700
Cr788      Cr  0.05649478  0.66028801  0.97614367     1.93200
Cr789      Cr  0.04060502  0.70666352  0.94044527     1.39100
O790        O  0.05569242  0.70114258  0.96968807    -1.23100
O791        O  0.26482041  0.97830699  0.84985400    -0.85300
O792        O  0.29767200  0.95325913  0.81928664    -0.82400
C793        C  0.33170630  0.97647440  0.81949196     0.98100
O794        O  0.35135127  0.97887931  0.83764045    -0.82400
O795        O  0.37053484  0.98168981  0.88640772    -0.85100
C796        C  0.37000268  0.51040829  0.89475882     1.02700
O797        O  0.33719756  0.00598493  0.89601073    -0.77800
O798        O  0.26389986  0.98163199  0.89001194    -0.78000
C799        C  0.25934275  0.99141915  0.86899231     1.02600
O800        O  0.22040466  0.90696294  0.87225990    -0.85300
O801        O  0.25577770  0.88146751  0.84256732    -0.82400
C802        C  0.28092721  0.87594285  0.83544138     0.98200
O803        O  0.31403193  0.90046829  0.83831387    -0.82400
O804        O  0.32614651  0.90336645  0.88852286    -0.85000
C805        C  0.32407664  0.90927537  0.91106585     1.02600
O806        O  0.31940350  0.93551242  0.91772342    -0.77800
O807        O  0.24903808  0.91151331  0.90688784    -0.78000
C808        C  0.22005631  0.89792586  0.89461192     1.02600
Cr809      Cr  0.26243941  0.93082396  0.84784333     1.93700
Cr810      Cr  0.33730357  0.94123129  0.86319931     1.93200
Cr811      Cr  0.29289190  0.95770552  0.90013091     1.39100
O812        O  0.29725935  0.94304504  0.87032654    -1.23100
O813        O  0.26747183  0.78502977  0.32426431    -0.85300
O814        O  0.30020546  0.84503369  0.35256475    -0.82400
C815        C  0.33352957  0.85307239  0.35130123     0.98100
O816        O  0.35274172  0.86952388  0.33278309    -0.82400
O817        O  0.37133183  0.88623340  0.28412398    -0.85100
C818        C  0.36999080  0.85696334  0.27710825     1.02700
O819        O  0.33992065  0.82741240  0.27767681    -0.77800
O820        O  0.26568166  0.77617252  0.28458543    -0.78000
C821        C  0.25996431  0.76375467  0.30639313     1.02600
O822        O  0.22164443  0.80876036  0.29979199    -0.85300
O823        O  0.25692783  0.87165483  0.32688471    -0.82400
C824        C  0.28173955  0.90135785  0.33539016     0.98200
O825        O  0.31477232  0.90960008  0.33295822    -0.82400
O826        O  0.32405796  0.91674662  0.28209009    -0.85000
C827        C  0.32329522  0.90810619  0.25975480     1.02600
O828        O  0.32040889  0.87749723  0.25390645    -0.77800
O829        O  0.24991879  0.82966775  0.26460747    -0.78000
C830        C  0.22112148  0.81591531  0.27708918     1.02600
Cr831      Cr  0.26404490  0.82923712  0.32408262     1.93700
Cr832      Cr  0.33781625  0.89255836  0.30760720     1.93200
Cr833      Cr  0.29445573  0.82906386  0.27246866     1.39100
O834        O  0.29836646  0.85009532  0.30134517    -1.23100
O835        O  0.02186175  0.78461943  0.18386281    -0.85300
O836        O  0.04870619  0.84377216  0.15460025    -0.82400
C837        C  0.02355644  0.85197409  0.15616526     0.98100
O838        O  0.02213662  0.86972856  0.17435795    -0.82400
O839        O  0.02334324  0.88904190  0.22248372    -0.85100
C840        C  0.49390987  0.86001442  0.22868557     1.02700
O841        O  0.49455770  0.83059384  0.22748458    -0.77800
O842        O  0.01790823  0.77913618  0.22394798    -0.78000
C843        C  0.00924035  0.76527845  0.20268466     1.02600
O844        O  0.09130365  0.80801082  0.20696141    -0.85300
O845        O  0.11979232  0.87004044  0.17911105    -0.82400
C846        C  0.12562113  0.90016898  0.17084143     0.98200
O847        O  0.10098195  0.90875898  0.17273293    -0.82400
O848        O  0.10113737  0.91893995  0.22347734    -0.85000
C849        C  0.09353142  0.91105622  0.24594188     1.02600
O850        O  0.06592157  0.88069688  0.25207631    -0.77800
O851        O  0.08759686  0.83175454  0.24217719    -0.78000
C852        C  0.10003348  0.81561900  0.22946821     1.02600
Cr853      Cr  0.06981103  0.82848792  0.18277134     1.93700
Cr854      Cr  0.06188909  0.89369636  0.19859966     1.93200
Cr855      Cr  0.04278847  0.83188631  0.23470516     1.39100
O856        O  0.05854842  0.85122952  0.20542620    -1.23100
O857        O  0.28266572  0.53859220  0.14662387    -0.85300
O858        O  0.32273176  0.52546623  0.18100546    -0.82400
C859        C  0.34669665  0.51759171  0.18770711     0.98100
O860        O  0.37818232  0.53355547  0.17792735    -0.82400
O861        O  0.37048886  0.49883708  0.13358471    -0.85100
C862        C  0.36115643  0.99021610  0.11158604     1.02700
O863        O  0.35065402  0.00774603  0.09849741    -0.77800
O864        O  0.28797307  0.50137402  0.12113402    -0.78000
C865        C  0.26876624  0.50796714  0.13590831     1.02600
O866        O  0.34348023  0.61193207  0.13879499    -0.85300
O867        O  0.37902412  0.60056331  0.17842905    -0.82400
C868        C  0.41140748  0.61693225  0.17062741     0.98200
O869        O  0.42071810  0.60309738  0.15349979    -0.82400
O870        O  0.41633494  0.56794939  0.11006332    -0.85000
C871        C  0.40994539  0.58450136  0.09307250     1.02600
O872        O  0.37919678  0.58282341  0.09167620    -0.77800
O873        O  0.31397793  0.57597192  0.10818327    -0.78000
C874        C  0.32941905  0.60746317  0.11755701     1.02600
Cr875      Cr  0.33353811  0.56822534  0.15953048     1.93700
Cr876      Cr  0.39338761  0.55112051  0.14343641     1.93200
Cr877      Cr  0.33409672  0.54253883  0.10719791     1.39100
O878        O  0.35383176  0.55375771  0.13680593    -1.23100
O879        O  0.28200782  0.74328249  0.02879074    -0.85300
O880        O  0.32313280  0.79571874  0.99396951    -0.82400
C881        C  0.34841089  0.82617691  0.98602527     0.98100
O882        O  0.37981350  0.84166509  0.99587590    -0.82400
O883        O  0.37472203  0.87073732  0.04060565    -0.85100
C884        C  0.36384330  0.87029782  0.06230503     1.02700
O885        O  0.35226856  0.84216332  0.07535960    -0.77800
O886        O  0.28850298  0.78661371  0.05384661    -0.78000
C887        C  0.26868623  0.76064166  0.03934765     1.02600
O888        O  0.34094918  0.72866007  0.03600077    -0.85300
O889        O  0.37685581  0.77385160  0.99603953    -0.82400
C890        C  0.40946725  0.78888446  0.00325380     0.98200
O891        O  0.41992401  0.81201607  0.02040811    -0.82400
O892        O  0.41856469  0.84398048  0.06341627    -0.85000
C893        C  0.41097513  0.82124635  0.08074003     1.02600
O894        O  0.37892735  0.79425235  0.08317015    -0.77800
O895        O  0.31353126  0.73678893  0.06747125    -0.78000
C896        C  0.32811738  0.72026676  0.05759017     1.02600
Cr897      Cr  0.33234267  0.76292254  0.01539723     1.93700
Cr898      Cr  0.39493319  0.83888167  0.03052658     1.93200
Cr899      Cr  0.33457158  0.79054886  0.06756865     1.39100
O900        O  0.35412646  0.79785954  0.03779469    -1.23100
O901        O  0.25756854  0.71482477  0.80921525    -0.85300
O902        O  0.20222160  0.67669668  0.84371471    -0.82400
C903        C  0.17094514  0.65241807  0.85130792     0.98100
O904        O  0.15521482  0.62008427  0.84247326    -0.82400
O905        O  0.12251309  0.61714079  0.79764522    -0.85100
C906        C  0.12449390  0.63449368  0.77828211     1.02700
O907        O  0.15383574  0.65248777  0.76666760    -0.77800
O908        O  0.21347541  0.71152570  0.78735495    -0.78000
C909        C  0.24091018  0.73007431  0.80093255     1.02600
O910        O  0.26492781  0.65240124  0.80203974    -0.85300
O911        O  0.22166286  0.62114762  0.84385852    -0.82400
C912        C  0.20895329  0.58892521  0.83639942     0.98200
O913        O  0.18569233  0.57754088  0.81943404    -0.82400
O914        O  0.15314411  0.57689705  0.77681640    -0.85000
C915        C  0.17110743  0.58691902  0.75701837     1.02600
O916        O  0.19471729  0.62000082  0.75300288    -0.77800
O917        O  0.25700005  0.67940901  0.76996086    -0.78000
C918        C  0.27252184  0.66382096  0.78003775     1.02600
Cr919      Cr  0.23359682  0.66445118  0.82291252     1.93700
Cr920      Cr  0.15756026  0.60149466  0.80871974     1.93200
Cr921      Cr  0.20436995  0.66445606  0.77172067     1.39100
O922        O  0.19779637  0.64305055  0.80086543    -1.23100
O923        O  0.45629897  0.71438045  0.69365370    -0.85300
O924        O  0.47033240  0.67433635  0.65944451    -0.82400
C925        C  0.47741044  0.64997111  0.65223672     0.98100
O926        O  0.46079677  0.61825630  0.66175723    -0.82400
O927        O  0.49777794  0.62668497  0.70541154    -0.85100
C928        C  0.00938041  0.63981758  0.72725356     1.02700
O929        O  0.99283709  0.65111073  0.74066540    -0.77800
O930        O  0.49475156  0.71062971  0.71869984    -0.78000
C931        C  0.48672839  0.72932020  0.70455349     1.02600
O932        O  0.38472278  0.65241769  0.70243438    -0.85300
O933        O  0.39533466  0.61687730  0.66265395    -0.82400
C934        C  0.37780200  0.58523334  0.67171958     0.98200
O935        O  0.39211002  0.57618667  0.68858916    -0.82400
O936        O  0.43066526  0.58190939  0.73031096    -0.85000
C937        C  0.41447006  0.58847478  0.74739930     1.02600
O938        O  0.41642338  0.61925752  0.74905592    -0.77800
O939        O  0.42090367  0.68283697  0.73277747    -0.78000
C940        C  0.38933580  0.66606377  0.72383521     1.02600
Cr941      Cr  0.42769905  0.66311401  0.68111752     1.93700
Cr942      Cr  0.44513903  0.60377698  0.69678682     1.93200
Cr943      Cr  0.45536847  0.66424835  0.73299200     1.39100
O944        O  0.44329225  0.64378929  0.70358489    -1.23100
O945        O  0.46024091  0.73916978  0.47746088    -0.85300
O946        O  0.47303580  0.79369084  0.51112565    -0.82400
C947        C  0.47919920  0.82505630  0.51779891     0.98100
O948        O  0.46194933  0.83926198  0.50808577    -0.82400
O949        O  0.49564333  0.86608958  0.46399335    -0.85100
C950        C  0.00937214  0.86720897  0.44175589     1.02700
O951        O  0.99616913  0.83848014  0.42917070    -0.77800
O952        O  0.49769231  0.78083899  0.45187308    -0.78000
C953        C  0.49087985  0.75505668  0.46665988     1.02600
O954        O  0.38709155  0.72673536  0.47012246    -0.85300
O955        O  0.39760500  0.77303016  0.50915724    -0.82400
C956        C  0.37854851  0.78568062  0.50056305     0.98200
O957        O  0.39117832  0.80825092  0.48309334    -0.82400
O958        O  0.42651230  0.83990839  0.44027311    -0.85000
C959        C  0.41233667  0.81745441  0.42270847     1.02600
O960        O  0.41691567  0.79013322  0.42078803    -0.77800
O961        O  0.42220682  0.73214036  0.43884879    -0.78000
C962        C  0.39122379  0.71683679  0.44900560     1.02600
Cr963      Cr  0.43048206  0.76054151  0.49022010     1.93700
Cr964      Cr  0.44376930  0.83524288  0.47350547     1.93200
Cr965      Cr  0.45635148  0.78571147  0.43761241     1.39100
O966        O  0.44394462  0.79433203  0.46706744    -1.23100
O967        O  0.25577595  0.53548075  0.35988243    -0.85300
O968        O  0.20013180  0.52419064  0.32846338    -0.82400
C969        C  0.16830074  0.51736808  0.32278738     0.98100
O970        O  0.15337655  0.53262068  0.33423463    -0.82400
O971        O  0.13149717  0.49787149  0.37897333    -0.85100
C972        C  0.13676716  0.98788621  0.40026275     1.02700
O973        O  0.16472124  0.00617102  0.41329993    -0.77800
O974        O  0.21659249  0.49906862  0.38739412    -0.78000
C975        C  0.24074484  0.50529692  0.37120315     1.02600
O976        O  0.26991760  0.60879435  0.36927348    -0.85300
O977        O  0.21995033  0.59911759  0.33288664    -0.82400
C978        C  0.20511437  0.61608735  0.34181071     0.98200
O979        O  0.18319617  0.60246154  0.35955952    -0.82400
O980        O  0.15649201  0.56651418  0.40296420    -0.85000
C981        C  0.18105980  0.58432438  0.41870656     1.02600
O982        O  0.20977245  0.58170269  0.41915877    -0.77800
O983        O  0.26646002  0.57318025  0.39948519    -0.78000
C984        C  0.28206808  0.60396840  0.38929236     1.02600
Cr985      Cr  0.23414080  0.56597824  0.34945190     1.93700
Cr986      Cr  0.15947070  0.55000909  0.36914166     1.93200
Cr987      Cr  0.21289392  0.54066308  0.40251616     1.39100
O988        O  0.20185074  0.55196505  0.37363386    -1.23100
O989        O  0.20814972  0.97847506  0.65715941    -0.85300
O990        O  0.14834608  0.95115507  0.68592985    -0.82400
C991        C  0.13928241  0.97566416  0.68439925     0.98100
O992        O  0.12227788  0.97714301  0.66579571    -0.82400
O993        O  0.10743932  0.97888413  0.61684517    -0.85100
C994        C  0.13372774  0.50257854  0.60980919     1.02700
O995        O  0.16646815  0.00546136  0.61133285    -0.77800
O996        O  0.21664876  0.98204135  0.61750230    -0.78000
C997        C  0.22936539  0.99097679  0.63910465     1.02600
O998        O  0.18440257  0.90776873  0.63400528    -0.85300
O999        O  0.12215483  0.88029508  0.66165984    -0.82400
C1000       C  0.09144824  0.87435971  0.66889257     0.98200
O1001       O  0.08261336  0.89870311  0.66601749    -0.82400
O1002       O  0.07601981  0.90043521  0.61535731    -0.85000
C1003       C  0.08466491  0.90816017  0.59305814     1.02600
O1004       O  0.11527926  0.93605063  0.58745226    -0.77800
O1005       O  0.16176011  0.91262044  0.59873710    -0.78000
C1006       C  0.17636170  0.89884309  0.61153711     1.02600
Cr1007     Cr  0.16415163  0.93016471  0.65796385     1.93700
Cr1008     Cr  0.10003369  0.93889197  0.64069455     1.93200
Cr1009     Cr  0.16361003  0.95820276  0.60597549     1.39100
O1010       O  0.14263637  0.94202164  0.63490727    -1.23100
O1011       O  0.21926878  0.75645004  0.53284044    -0.85300
O1012       O  0.18069372  0.70466282  0.49746873    -0.82400
C1013       C  0.15641069  0.67374371  0.48960500     0.98100
O1014       O  0.12399922  0.65938878  0.49778840    -0.82400
O1015       O  0.13004855  0.62813931  0.54041340    -0.85100
C1016       C  0.14060817  0.62699262  0.56186888     1.02700
O1017       O  0.15145466  0.65397833  0.57612360    -0.77800
O1018       O  0.21494737  0.71219361  0.55558790    -0.78000
C1019       C  0.23342305  0.73845869  0.54092872     1.02600
O1020       O  0.16045753  0.76926708  0.54051525    -0.85300
O1021       O  0.12416439  0.72480184  0.49999464    -0.82400
C1022       C  0.09140755  0.70943723  0.50740984     0.98200
O1023       O  0.08128928  0.68547202  0.52403999    -0.82400
O1024       O  0.08473415  0.65091824  0.56592854    -0.85000
C1025       C  0.09138245  0.67329995  0.58338696     1.02600
O1026       O  0.12305033  0.70081081  0.58614068    -0.77800
O1027       O  0.18774542  0.76009439  0.57175798    -0.78000
C1028       C  0.17475550  0.77809567  0.56174449     1.02600
Cr1029     Cr  0.16942520  0.73611650  0.51909013     1.93700
Cr1030     Cr  0.10810180  0.65917350  0.53258680     1.93200
Cr1031     Cr  0.16810525  0.70628239  0.57020274     1.39100
O1032       O  0.14818750  0.70031469  0.54073090    -1.23100
C1033       C  0.11905599  0.58178353  0.59505821    -0.12200
C1034       C  0.13659525  0.59301537  0.57219480     0.04800
C1035       C  0.15166419  0.57329099  0.56133147    -0.07500
C1036       C  0.15022756  0.54374161  0.57400725    -0.08300
C1037       C  0.13281430  0.53272190  0.59699007    -0.02800
C1038       C  0.11608056  0.55129174  0.60717587     0.04000
N1039       N  0.09757188  0.54086621  0.63028900     0.66500
H1040       H  0.10811781  0.59721750  0.60370968     0.15400
H1041       H  0.16289337  0.52938237  0.56589127     0.15100
N1042       N  0.17091879  0.58443948  0.53853461     0.74200
O1043       O  0.11290095  0.56027121  0.64896617    -0.39300
O1044       O  0.06339374  0.51978819  0.63053344    -0.39200
O1045       O  0.20533176  0.59989347  0.53873442    -0.39900
O1046       O  0.15397115  0.57020044  0.51882880    -0.40000
C1047       C  0.17735367  0.84082142  0.61291968    -0.12200
C1048       C  0.18266510  0.87123922  0.59953268     0.04800
C1049       C  0.18773357  0.87200033  0.57375304    -0.07500
C1050       C  0.18432833  0.84117710  0.56166082    -0.08300
C1051       C  0.17784171  0.81012305  0.57497629    -0.02800
C1052       C  0.17530527  0.81051497  0.60099047     0.04000
N1053       N  0.16872514  0.77970943  0.61560160     0.66500
H1054       H  0.17307483  0.83980827  0.63263971     0.15400
H1055       H  0.18759419  0.84183537  0.54186324     0.15100
N1056       N  0.19646744  0.90404871  0.55971002     0.74200
O1057       O  0.19563952  0.77874053  0.62474589    -0.39300
O1058       O  0.13755743  0.76026091  0.62505831    -0.39200
O1059       O  0.22463022  0.93413212  0.56483128    -0.39900
O1060       O  0.17420097  0.90315408  0.54390669    -0.40000
C1061       C  0.13711113  0.63100353  0.45420673    -0.12200
C1062       C  0.16483040  0.65360774  0.47056541     0.04800
C1063       C  0.19815204  0.65332287  0.46984199    -0.07500
C1064       C  0.20303442  0.63084185  0.45291345    -0.08300
C1065       C  0.17506009  0.60786122  0.43663077    -0.02800
C1066       C  0.14162254  0.60831659  0.43752238     0.04000
N1067       N  0.11118165  0.58510893  0.42225858     0.66500
H1068       H  0.11111243  0.63036895  0.45462235     0.15400
H1069       H  0.22885723  0.63113510  0.45276756     0.15100
N1070       N  0.22667274  0.67417727  0.48695776     0.74200
O1071       O  0.08702196  0.55448234  0.43046056    -0.39300
O1072       O  0.10379232  0.59870929  0.40403091    -0.39200
O1073       O  0.23034168  0.65848846  0.50554295    -0.39900
O1074       O  0.25308553  0.70447952  0.48024957    -0.40000
C1075       C  0.50889269  0.82701844  0.55805233    -0.12200
C1076       C  0.50627803  0.84553468  0.53742433     0.04800
C1077       C  0.03277098  0.88522044  0.53285810    -0.07500
C1078       C  0.05811713  0.90392784  0.55157166    -0.08300
C1079       C  0.05809133  0.88633199  0.57340403    -0.02800
C1080       C  0.03224414  0.84861173  0.57601978     0.04000
N1081       N  0.03124610  0.82893886  0.59762038     0.66500
H1082       H  0.49134486  0.79752581  0.55948276     0.15400
H1083       H  0.07769238  0.93286370  0.54910526     0.15100
N1084       N  0.03467614  0.90468987  0.51095246     0.74200
O1085       O  0.51232180  0.81646642  0.61471239    -0.39300
O1086       O  0.04767283  0.81089844  0.59762117    -0.39200
O1087       O  0.02001892  0.92439242  0.51066480    -0.39900
O1088       O  0.05877514  0.91020546  0.49515121    -0.40000
C1089       C  0.07604781  0.90550770  0.43960761    -0.12200
C1090       C  0.04170490  0.89916585  0.43235426     0.04800
C1091       C  0.03865542  0.92086029  0.41399159    -0.07500
C1092       C  0.07011104  0.94895930  0.40332298    -0.08300
C1093       C  0.10474623  0.95602390  0.41080805    -0.02800
C1094       C  0.10768884  0.93398427  0.42917981     0.04000
N1095       N  0.14230514  0.93912841  0.43674334     0.66500
H1096       H  0.07827598  0.88781828  0.45316041     0.15400
H1097       H  0.06735941  0.96589282  0.38941091     0.15100
N1098       N  0.00384056  0.91461836  0.40593456     0.74200
O1099       O  0.15618368  0.95582286  0.45659612    -0.39300
O1100       O  0.15369794  0.91927438  0.42744134    -0.39200
O1101       O  0.99106936  0.93332430  0.41515947    -0.39900
O1102       O  0.99125211  0.89848273  0.38574524    -0.40000
C1103       C  0.31027716  0.66545163  0.40717102    -0.12200
C1104       C  0.31236376  0.63403276  0.40247735     0.04800
C1105       C  0.33923411  0.62916654  0.41446989    -0.07500
C1106       C  0.36367311  0.65590940  0.43059655    -0.08300
C1107       C  0.36103569  0.68690187  0.43574248    -0.02800
C1108       C  0.33407194  0.69168667  0.42388388     0.04000
N1109       N  0.33051017  0.72301029  0.42836463     0.66500
H1110       H  0.28892243  0.66888788  0.39865801     0.15400
H1111       H  0.38523291  0.65266871  0.43896368     0.15100
N1112       N  0.34294276  0.59790304  0.40983195     0.74200
O1113       O  0.33752581  0.74545722  0.41110065    -0.39300
O1114       O  0.30946296  0.72140459  0.44536468    -0.39200
O1115       O  0.36847824  0.60143365  0.39598495    -0.39900
O1116       O  0.32858218  0.57128792  0.42457037    -0.40000
C1117       C  0.50472528  0.71024001  0.48644491    -0.12200
C1118       C  0.01797856  0.74384487  0.47620292     0.04800
C1119       C  0.05578635  0.76271382  0.47069537    -0.07500
C1120       C  0.07877131  0.75062671  0.48061800    -0.08300
C1121       C  0.06534601  0.71999200  0.49634284    -0.02800
C1122       C  0.02743993  0.70086452  0.50147667     0.04000
N1123       N  0.01139618  0.66948833  0.51712569     0.66500
H1124       H  0.47588966  0.69378987  0.49095071     0.15400
H1125       H  0.10774182  0.76604090  0.47629391     0.15100
N1126       N  0.07169470  0.79475351  0.45570119     0.74200
O1127       O  0.50463380  0.66478919  0.53129801    -0.39300
O1128       O  0.99442259  0.63802070  0.50761506    -0.39200
O1129       O  0.08815238  0.82578613  0.46585827    -0.39900
O1130       O  0.07731928  0.79197906  0.43321617    -0.40000
C1131       C  0.28338912  0.77225952  0.51100708    -0.12200
C1132       C  0.27101260  0.74951272  0.53190322     0.04800
C1133       C  0.29450420  0.73849897  0.54239678    -0.07500
C1134       C  0.32941929  0.75081418  0.53210837    -0.08300
C1135       C  0.34161758  0.77378166  0.51121246    -0.02800
C1136       C  0.31761292  0.78395308  0.50053703     0.04000
N1137       N  0.32673579  0.80520081  0.47852766     0.66500
H1138       H  0.26580867  0.78054885  0.50193687     0.15400
H1139       H  0.34713609  0.74225481  0.54064834     0.15100
N1140       N  0.28395605  0.71569558  0.56368691     0.74200
O1141       O  0.31565566  0.78904621  0.45815573    -0.39300
O1142       O  0.33675168  0.83874763  0.47998159    -0.39200
O1143       O  0.27357975  0.68216232  0.56127182    -0.39900
O1144       O  0.29346549  0.73031475  0.58464246    -0.40000
C1145       C  0.50494213  0.62767119  0.62080970    -0.12200
C1146       C  0.50508234  0.65747652  0.63254514     0.04800
C1147       C  0.03058318  0.69244280  0.62510033    -0.07500
C1148       C  0.05830117  0.69700158  0.60869459    -0.08300
C1149       C  0.06145211  0.66711876  0.60058340    -0.02800
C1150       C  0.03520382  0.63174879  0.60858469     0.04000
N1151       N  0.03715777  0.60016305  0.60159082     0.66500
H1152       H  0.48382249  0.59989024  0.62516007     0.15400
H1153       H  0.07733318  0.72429524  0.60192763     0.15100
N1154       N  0.02956716  0.72414053  0.63312147     0.74200
O1155       O  0.54697475  0.58651851  0.60578266    -0.39300
O1156       O  0.01891038  0.58171049  0.58327871    -0.39200
O1157       O  0.05295270  0.74543771  0.64845952    -0.39900
O1158       O  0.01185323  0.73526439  0.62070749    -0.40000
C1159       C  0.05086009  0.78081488  0.69987369    -0.12200
C1160       C  0.01341937  0.76874007  0.69879574     0.04800
C1161       C  0.00216967  0.79306503  0.68985506    -0.07500
C1162       C  0.02811720  0.82755707  0.68095379    -0.08300
C1163       C  0.06546454  0.83880949  0.68061513    -0.02800
C1164       C  0.07682280  0.81528443  0.69088216     0.04000
N1165       N  0.11456493  0.82586992  0.69251077     0.66500
H1166       H  0.06013052  0.76272723  0.70685770     0.15400
H1167       H  0.01868368  0.84532939  0.67362812     0.15100
N1168       N  0.46356426  0.78259687  0.69141153     0.74200
O1169       O  0.13162149  0.84002480  0.71219711    -0.39300
O1170       O  0.12772381  0.81292577  0.67731563    -0.39200
O1171       O  0.45115607  0.79244685  0.70913558    -0.39900
O1172       O  0.44574296  0.77248189  0.67157493    -0.40000
C1173       C  0.33005111  0.56175225  0.63849493    -0.12200
C1174       C  0.34022619  0.55943145  0.66282063     0.04800
C1175       C  0.31334073  0.53407818  0.67890570    -0.07500
C1176       C  0.28113084  0.00773226  0.66735435    -0.08300
C1177       C  0.26681563  0.51495901  0.64668571    -0.02800
C1178       C  0.29381833  0.53957590  0.63022917     0.04000
N1179       N  0.28492770  0.54331429  0.60547606     0.66500
H1180       H  0.35035505  0.58120820  0.62581656     0.15400
H1181       H  0.26203244  0.98597771  0.67938716     0.15100
N1182       N  0.32605527  0.02243222  0.69946112     0.74200
O1183       O  0.27749806  0.56800534  0.60034947    -0.39300
O1184       O  0.29298932  0.52841248  0.58833842    -0.39200
O1185       O  0.31676384  0.03381491  0.71803759    -0.39900
O1186       O  0.33411182  0.99762199  0.70212374    -0.40000
C1187       C  0.16140016  0.52560390  0.74596011    -0.12200
C1188       C  0.16398543  0.55861303  0.73843844     0.04800
C1189       C  0.15859963  0.56335559  0.71347782    -0.07500
C1190       C  0.15025359  0.53506006  0.69684113    -0.08300
C1191       C  0.14917966  0.00403391  0.70375577    -0.02800
C1192       C  0.15723495  0.99982456  0.72834868     0.04000
N1193       N  0.15539067  0.96684062  0.73658056     0.66500
H1194       H  0.16586607  0.52176530  0.76523892     0.15400
H1195       H  0.14634958  0.53944611  0.67750282     0.15100
N1196       N  0.15980626  0.59594745  0.70494616     0.74200
O1197       O  0.18445563  0.96544796  0.73811213    -0.39300
O1198       O  0.12728138  0.94346600  0.74792872    -0.39200
O1199       O  0.18616765  0.61794788  0.69163701    -0.39900
O1200       O  0.13096497  0.59786730  0.70529511    -0.40000
C1201       C  0.09469514  0.66804928  0.76400157    -0.12200
C1202       C  0.09251277  0.63424311  0.76778714     0.04800
C1203       C  0.06425417  0.60264343  0.75643467    -0.07500
C1204       C  0.03875492  0.60549987  0.74160378    -0.08300
C1205       C  0.04075734  0.63931066  0.73814072    -0.02800
C1206       C  0.06885459  0.67076797  0.74964391     0.04000
N1207       N  0.07182911  0.70575920  0.74655744     0.66500
H1208       H  0.11714577  0.69273851  0.77195390     0.15400
H1209       H  0.01647927  0.58091424  0.73343085     0.15100
N1210       N  0.06160829  0.56775849  0.75925613     0.74200
O1211       O  0.05965954  0.71780251  0.76310697    -0.39300
O1212       O  0.09387586  0.72762481  0.73082041    -0.39200
O1213       O  0.03882105  0.54519665  0.77436405    -0.39900
O1214       O  0.07444072  0.55636528  0.74272850    -0.40000
C1215       C  0.32575859  0.65398531  0.72726146    -0.12200
C1216       C  0.35882445  0.66341794  0.73872113     0.04800
C1217       C  0.36214939  0.67009529  0.76450754    -0.07500
C1218       C  0.33316739  0.66867888  0.77776670    -0.08300
C1219       C  0.30086614  0.66111074  0.76599086    -0.02800
C1220       C  0.29697152  0.65294768  0.74051922     0.04000
N1221       N  0.26353334  0.64204311  0.72787388     0.66500
H1222       H  0.32227936  0.64789037  0.70769748     0.15400
H1223       H  0.33644951  0.67471779  0.79734411     0.15100
N1224       N  0.39461764  0.67831799  0.77768413     0.74200
O1225       O  0.25958377  0.66595834  0.71663838    -0.39300
O1226       O  0.24423142  0.60895481  0.72161207    -0.39200
O1227       O  0.41696655  0.71113116  0.78324163    -0.39900
O1228       O  0.39605020  0.65297772  0.78896604    -0.40000
C1229       C  0.35842700  0.95584693  0.07387187    -0.12200
C1230       C  0.36329661  0.95975479  0.09961477     0.04800
C1231       C  0.37049467  0.93508604  0.11246466    -0.07500
C1232       C  0.37141140  0.90686643  0.09961573    -0.08300
C1233       C  0.36569901  0.90266686  0.07401705    -0.02800
C1234       C  0.35984669  0.92795198  0.06104511     0.04000
N1235       N  0.35343788  0.92473127  0.03513554     0.66500
H1236       H  0.35320516  0.97458516  0.06333030     0.15400
H1237       H  0.37645022  0.88777350  0.10990867     0.15100
N1238       N  0.37621707  0.93762281  0.13845504     0.74200
O1239       O  0.32099702  0.90884174  0.02730619    -0.39300
O1240       O  0.37911949  0.94502168  0.02076149    -0.39200
O1241       O  0.35009475  0.91702762  0.15244296    -0.39900
O1242       O  0.40845953  0.95281995  0.14663751    -0.40000
C1243       C  0.31733933  0.62981620  0.07813215    -0.12200
C1244       C  0.33018283  0.63756340  0.10269294     0.04800
C1245       C  0.34380288  0.67349950  0.11159213    -0.07500
C1246       C  0.34316079  0.70000719  0.09641009    -0.08300
C1247       C  0.33008859  0.69187534  0.07212847    -0.02800
C1248       C  0.31734902  0.65656089  0.06293775     0.04000
N1249       N  0.30259316  0.64704278  0.03866224     0.66500
H1250       H  0.30689734  0.60263717  0.07053106     0.13000
H1251       H  0.35311211  0.72732178  0.10368694     0.15100
N1252       N  0.35829686  0.68369634  0.13586507     0.74200
O1253       O  0.32302237  0.64925809  0.02102106    -0.39300
O1254       O  0.27123863  0.64241678  0.03427425    -0.39200
O1255       O  0.39246633  0.69996087  0.13893053    -0.39900
O1256       O  0.33826578  0.68451505  0.15278873    -0.40000
C1257       C  0.42947744  0.81964248  0.12396196    -0.12200
C1258       C  0.43955647  0.82769132  0.09919835     0.04800
C1259       C  0.47695155  0.84307864  0.09289131    -0.07500
C1260       C  0.00633350  0.85765840  0.11332793    -0.08300
C1261       C  0.99579755  0.84171714  0.13658037    -0.02800
C1262       C  0.45580003  0.82812457  0.14231180     0.04000
N1263       N  0.44406149  0.82050412  0.16734862     0.66500
H1264       H  0.40097087  0.80780135  0.12928264     0.15400
H1265       H  0.03515302  0.87564586  0.10932168     0.15100
N1266       N  0.48896982  0.85052628  0.06798459     0.74200
O1267       O  0.43848290  0.84302677  0.17912872    -0.39300
O1268       O  0.43079130  0.78827681  0.17534198    -0.39200
O1269       O  0.50087252  0.88243765  0.05973883    -0.39900
O1270       O  0.00584478  0.85750395  0.05690936    -0.40000
C1271       C  0.45655843  0.70469911  0.20891946    -0.12200
C1272       C  0.48582004  0.72728698  0.19353011     0.04800
C1273       C  0.99737386  0.70628746  0.18450743    -0.07500
C1274       C  0.46895068  0.67559896  0.16621324    -0.08300
C1275       C  0.43815122  0.65343942  0.18054458    -0.02800
C1276       C  0.43256915  0.66802088  0.20259611     0.04000
N1277       N  0.40281890  0.64623317  0.21874372     0.66500
H1278       H  0.45148297  0.71588442  0.22548426     0.15400
H1279       H  0.98226011  0.65652905  0.16533486     0.15100
N1280       N  0.03457102  0.72240133  0.17670194     0.74200
O1281       O  0.40807282  0.63064543  0.23676666    -0.39300
O1282       O  0.37519418  0.65028189  0.21875908    -0.39200
O1283       O  0.05612002  0.71558869  0.18855122    -0.39900
O1284       O  0.04324024  0.73556453  0.15532135    -0.40000
C1285       C  0.22191871  0.94228296  0.14377378    -0.12200
C1286       C  0.22941818  0.97792572  0.13892757     0.04800
C1287       C  0.20476946  0.49081523  0.14906451    -0.07500
C1288       C  0.16811599  0.96081100  0.15259885    -0.08300
C1289       C  0.16099196  0.92557927  0.15875515    -0.02800
C1290       C  0.18821177  0.91613245  0.15369657     0.04000
N1291       N  0.18263613  0.88054429  0.15893405     0.66500
H1292       H  0.24304985  0.93512941  0.14099217     0.15400
H1293       H  0.15161237  0.47360856  0.16378625     0.15100
N1294       N  0.21335026  0.52810595  0.14821591     0.74200
O1295       O  0.17175985  0.85694083  0.14200164    -0.39300
O1296       O  0.19698726  0.87592246  0.17791263    -0.39200
O1297       O  0.20206602  0.53876699  0.13035006    -0.39900
O1298       O  0.22349424  0.54703577  0.16762703    -0.40000
C1299       C  0.17092425  0.98660960  0.28341973    -0.12200
C1300       C  0.15173503  0.98817451  0.30404037     0.04800
C1301       C  0.11369220  0.96377199  0.30548689    -0.07500
C1302       C  0.09566509  0.93916292  0.28632691    -0.08300
C1303       C  0.11458424  0.93801612  0.26544637    -0.02800
C1304       C  0.15275639  0.96197021  0.26413068     0.04000
N1305       N  0.17375152  0.96029722  0.24409500     0.66500
H1306       H  0.19768896  0.50198136  0.28349953     0.15400
H1307       H  0.06635949  0.92063216  0.28786417     0.15100
N1308       N  0.09324806  0.96205550  0.32689838     0.74200
O1309       O  0.18400468  0.98395744  0.22726428    -0.39300
O1310       O  0.18925923  0.94154040  0.24636729    -0.39200
O1311       O  0.07358037  0.49396312  0.31655966    -0.39900
O1312       O  0.08819565  0.93906042  0.34344175    -0.40000
C1313       C  0.37090287  0.82562598  0.36261418    -0.12200
C1314       C  0.35056799  0.84174882  0.37052859     0.04800
C1315       C  0.34917295  0.84808355  0.39585282    -0.07500
C1316       C  0.36950895  0.83989538  0.41243280    -0.08300
C1317       C  0.39024772  0.82411775  0.40443734    -0.02800
C1318       C  0.39013859  0.81627162  0.37919994     0.04000
N1319       N  0.41025642  0.79993751  0.36985831     0.66500
H1320       H  0.37193026  0.82023442  0.34318571     0.15400
H1321       H  0.36920256  0.84610857  0.43175910     0.15100
N1322       N  0.32889346  0.86437096  0.40495459     0.74200
O1323       O  0.39423475  0.76562838  0.36748337    -0.39300
O1324       O  0.43913198  0.81938363  0.35778689    -0.39200
O1325       O  0.29863966  0.84438983  0.41545659    -0.39900
O1326       O  0.34513751  0.89849347  0.40842482    -0.40000
C1327       C  0.36043234  0.97436608  0.20620223    -0.12200
C1328       C  0.33653146  0.98847544  0.20542796     0.04800
C1329       C  0.30994686  0.47680128  0.22396503    -0.07500
C1330       C  0.30334767  0.94857287  0.23996412    -0.08300
C1331       C  0.32737679  0.93465992  0.24048662    -0.02800
C1332       C  0.35595048  0.94761832  0.22317785     0.04000
N1333       N  0.38203063  0.93553822  0.22342084     0.66500
H1334       H  0.38306430  0.98401646  0.19326444     0.15400
H1335       H  0.28104455  0.93867842  0.25319208     0.15100
N1336       N  0.28580968  0.49127392  0.22419476     0.74200
O1337       O  0.37625337  0.90836348  0.21043813    -0.39300
O1338       O  0.41412701  0.95741790  0.23059855    -0.39200
O1339       O  0.25547490  0.47405224  0.21328436    -0.39900
O1340       O  0.29076942  0.51561869  0.23968263    -0.40000
C1341       C  0.43597148  0.82819125  0.25216309    -0.12200
C1342       C  0.46215845  0.86008029  0.24030889     0.04800
C1343       C  0.45847939  0.89153325  0.24140875    -0.07500
C1344       C  0.42944645  0.89047692  0.25465444    -0.08300
C1345       C  0.40277250  0.85817952  0.26604985    -0.02800
C1346       C  0.40666272  0.82695632  0.26482153     0.04000
N1347       N  0.38089855  0.79335699  0.27602483     0.66500
H1348       H  0.43822961  0.80365474  0.25186479     0.15400
H1349       H  0.42710335  0.91493342  0.25535534     0.15100
N1350       N  0.48323306  0.92429101  0.22863302     0.74200
O1351       O  0.36005081  0.76716296  0.26221631    -0.39300
O1352       O  0.38655229  0.78674025  0.29769532    -0.39200
O1353       O  0.98656259  0.93053765  0.20867549    -0.39900
O1354       O  0.50934574  0.95023150  0.24003271    -0.40000
C1355       C  0.15522796  0.81004397  0.22720133    -0.12200
C1356       C  0.12629747  0.80712693  0.24119206     0.04800
C1357       C  0.12587361  0.80155774  0.26685711    -0.07500
C1358       C  0.15631926  0.80302419  0.27834926    -0.08300
C1359       C  0.18698190  0.80912269  0.26449769    -0.02800
C1360       C  0.18538315  0.81114869  0.23843171     0.04000
N1361       N  0.21470061  0.81584152  0.22288207     0.66500
H1362       H  0.15559040  0.81380696  0.20746998     0.15400
H1363       H  0.15630737  0.80035754  0.29814986     0.15100
N1364       N  0.09476142  0.79466919  0.28137600     0.74200
O1365       O  0.21183558  0.78854944  0.21138521    -0.39300
O1366       O  0.23783618  0.84760500  0.21574477    -0.39200
O1367       O  0.06386198  0.76733341  0.27667453    -0.39900
O1368       O  0.09722315  0.81810936  0.29684246    -0.40000
C1369       C  0.23397879  0.66310769  0.30883016    -0.12200
C1370       C  0.21441362  0.65218694  0.33112597     0.04800
C1371       C  0.20700037  0.67724268  0.34339139    -0.07500
C1372       C  0.22045411  0.71240421  0.33386247    -0.08300
C1373       C  0.24201937  0.72411811  0.31240960    -0.02800
C1374       C  0.24781409  0.69857046  0.29944803     0.04000
N1375       N  0.27098244  0.70890365  0.27842366     0.66500
H1376       H  0.24003830  0.64439802  0.29893851     0.15400
H1377       H  0.21503266  0.73134271  0.34405967     0.15100
N1378       N  0.18792321  0.66853650  0.36631583     0.74200
O1379       O  0.30178859  0.71134092  0.28075224    -0.39300
O1380       O  0.25674406  0.70318320  0.25733364    -0.39200
O1381       O  0.20597718  0.67896042  0.38605385    -0.39900
O1382       O  0.15455309  0.65932743  0.36653968    -0.40000
C1383       C  0.29893432  0.96386663  0.34905328    -0.12200
C1384       C  0.27251711  0.92677450  0.34815449     0.04800
C1385       C  0.23775631  0.91521400  0.35867843    -0.07500
C1386       C  0.22941578  0.94119446  0.36821568    -0.08300
C1387       C  0.25534606  0.97872990  0.36759461    -0.02800
C1388       C  0.28650158  0.48880553  0.35374050     0.04000
N1389       N  0.31323810  0.52643199  0.35032263     0.66500
H1390       H  0.32598851  0.97326440  0.34161900     0.15400
H1391       H  0.20225917  0.93209159  0.37530579     0.15100
N1392       N  0.21072499  0.87727124  0.35986017     0.74200
O1393       O  0.33977156  0.54120927  0.36504930    -0.39300
O1394       O  0.31616100  0.54076825  0.32948433    -0.39200
O1395       O  0.21511591  0.85627683  0.37417006    -0.39900
O1396       O  0.18445753  0.86405417  0.34484378    -0.40000
C1397       C  0.35920235  0.55371713  0.77346610    -0.12200
C1398       C  0.39333598  0.55958624  0.76559649     0.04800
C1399       C  0.40641285  0.53704664  0.77482091    -0.07500
C1400       C  0.38568277  0.50979559  0.79193310    -0.08300
C1401       C  0.34982000  0.00076670  0.79819374    -0.02800
C1402       C  0.33810796  0.52591805  0.79033052     0.04000
N1403       N  0.30433479  0.52212804  0.79868893     0.66500
H1404       H  0.34883738  0.57089187  0.76649577     0.15400
H1405       H  0.39214388  0.98638939  0.79679725     0.15100
N1406       N  0.44170298  0.54295232  0.76821216     0.74200
O1407       O  0.30485527  0.54326429  0.81531205    -0.39300
O1408       O  0.27634514  0.00536878  0.78290229    -0.39200
O1409       O  0.46861620  0.56227781  0.78198585    -0.39900
O1410       O  0.44424199  0.52245651  0.75238033    -0.40000
C1411       C  0.26844252  0.55513027  0.86637928    -0.12200
C1412       C  0.24565543  0.51728346  0.86467156     0.04800
C1413       C  0.20898107  0.00411182  0.86004895    -0.07500
C1414       C  0.19837221  0.52653001  0.84642556    -0.08300
C1415       C  0.22141752  0.56471815  0.84741471    -0.02800
C1416       C  0.25673459  0.57893712  0.85788475     0.04000
N1417       N  0.28229440  0.61730557  0.85813990     0.66500
H1418       H  0.29619756  0.56627760  0.87301663     0.15400
H1419       H  0.16979840  0.01753900  0.84552086     0.15100
N1420       N  0.18270924  0.96614499  0.86283860     0.74200
O1421       O  0.28778632  0.63488777  0.87795326    -0.39300
O1422       O  0.30548428  0.63098477  0.84102916    -0.39200
O1423       O  0.17246181  0.95318763  0.88414839    -0.39900
O1424       O  0.17615036  0.94462665  0.84497961    -0.40000
C1425       C  0.23192567  0.78442418  0.80138044    -0.12200
C1426       C  0.25335679  0.76888045  0.80781814     0.04800
C1427       C  0.28534364  0.79026844  0.82209474    -0.07500
C1428       C  0.29422429  0.82536572  0.82995192    -0.08300
C1429       C  0.27194785  0.84014758  0.82437512    -0.02800
C1430       C  0.24085485  0.81956876  0.80942921     0.04000
N1431       N  0.21879015  0.83440783  0.80145648     0.66500
H1432       H  0.20752169  0.76894080  0.79022418     0.15400
H1433       H  0.31833576  0.84076811  0.84140186     0.15100
N1434       N  0.30879804  0.77667980  0.82946006     0.74200
O1435       O  0.22643964  0.85172243  0.78141475    -0.39300
O1436       O  0.18731082  0.82214620  0.81051107    -0.39200
O1437       O  0.33840104  0.78708984  0.81803935    -0.39900
O1438       O  0.30475152  0.76261421  0.85051435    -0.40000
C1439       C  0.36044212  0.88308166  0.92866947    -0.12200
C1440       C  0.32919777  0.88663837  0.92976798     0.04800
C1441       C  0.30341549  0.86827720  0.94862965    -0.07500
C1442       C  0.30944109  0.84736600  0.96603437    -0.08300
C1443       C  0.34129797  0.84492885  0.96551166    -0.02800
C1444       C  0.36690117  0.86285841  0.94643598     0.04000
N1445       N  0.39902895  0.85989949  0.94440248     0.66500
H1446       H  0.38034128  0.89663581  0.91410848     0.15400
H1447       H  0.28939780  0.83364005  0.98048475     0.15100
N1448       N  0.27025343  0.86933740  0.94985886     0.74200
O1449       O  0.39838737  0.83516339  0.93099762    -0.39300
O1450       O  0.42939790  0.88633907  0.95109501    -0.39200
O1451       O  0.24160165  0.84307707  0.94085487    -0.39900
O1452       O  0.26752594  0.89014405  0.96533343    -0.40000
C1453       C  0.48751830  0.61197577  0.04714831    -0.12200
C1454       C  0.49509817  0.64694561  0.04003964     0.04800
C1455       C  0.47428605  0.66137217  0.05051292    -0.07500
C1456       C  0.44619594  0.64038797  0.06736749    -0.08300
C1457       C  0.43892419  0.60546910  0.07458442    -0.02800
C1458       C  0.46026258  0.59148298  0.06440075     0.04000
N1459       N  0.45345387  0.55566925  0.07029951     0.66500
H1460       H  0.50283645  0.60021643  0.03906255     0.15400
H1461       H  0.43025493  0.65168493  0.07510651     0.15100
N1462       N  0.98178746  0.69927795  0.04492709     0.74200
O1463       O  0.43548007  0.52998853  0.05532171    -0.39300
O1464       O  0.47380924  0.55227991  0.08574219    -0.39200
O1465       O  0.96131596  0.70269663  0.02959214    -0.39900
O1466       O  0.00029293  0.72511624  0.05968207    -0.40000
C1467       C  0.12657982  0.69529380  0.89017834    -0.12200
C1468       C  0.11060895  0.66937005  0.90911089     0.04800
C1469       C  0.11623887  0.63908734  0.90926546    -0.07500
C1470       C  0.13630189  0.63467000  0.89041216    -0.08300
C1471       C  0.15236576  0.66045949  0.87155469    -0.02800
C1472       C  0.14784710  0.69147781  0.87170506     0.04000
N1473       N  0.16334279  0.71851950  0.85280702     0.66500
H1474       H  0.12270546  0.71889436  0.88981272     0.15400
H1475       H  0.13941766  0.61060181  0.89055873     0.15100
N1476       N  0.10046294  0.61154624  0.92778083     0.74200
O1477       O  0.14426543  0.71595395  0.83427459    -0.39300
O1478       O  0.19165979  0.74869803  0.85742387    -0.39200
O1479       O  0.07491352  0.58023128  0.92184456    -0.39900
O1480       O  0.11885945  0.61473246  0.94679324    -0.40000
C1481       C  0.43504008  0.60530149  0.92069332    -0.12200
C1482       C  0.46281171  0.60022320  0.93083257     0.04800
C1483       C  0.46053677  0.56589697  0.92737980    -0.07500
C1484       C  0.43076693  0.53776835  0.91488158    -0.08300
C1485       C  0.40262937  0.54258396  0.90543721    -0.02800
C1486       C  0.40539730  0.57719913  0.90801341     0.04000
N1487       N  0.37919615  0.58486783  0.89714800     0.66500
H1488       H  0.43636590  0.63158611  0.92233573     0.15400
H1489       H  0.42944388  0.51150127  0.91298710     0.15100
N1490       N  0.98059372  0.55663675  0.93969960     0.74200
O1491       O  0.35457331  0.58452987  0.91047976    -0.39300
O1492       O  0.38633224  0.60094586  0.87663378    -0.39200
O1493       O  0.97508558  0.54141601  0.96044634    -0.39900
O1494       O  0.00237089  0.55432782  0.92493919    -0.40000
C1495       C  0.18657099  0.87056698  0.93344043    -0.12200
C1496       C  0.18607647  0.87131154  0.90752300     0.04800
C1497       C  0.15484480  0.84450504  0.89517174    -0.07500
C1498       C  0.12683439  0.81600610  0.90857421    -0.08300
C1499       C  0.12911191  0.81335872  0.93425735    -0.02800
C1500       C  0.15889309  0.84177955  0.94682674     0.04000
N1501       N  0.16327027  0.84035159  0.97277939     0.66500
H1502       H  0.20985680  0.89155188  0.94351568     0.15400
H1503       H  0.10358553  0.79485632  0.89854576     0.15100
N1504       N  0.15196197  0.84431826  0.86903076     0.74200
O1505       O  0.17840718  0.82327141  0.98098671    -0.39300
O1506       O  0.16029425  0.86280164  0.98655025    -0.39200
O1507       O  0.15645976  0.82151184  0.85674643    -0.39900
O1508       O  0.13599299  0.85956079  0.85921337    -0.40000
C1509       C  0.47112787  0.79588064  0.00146990    -0.12200
C1510       C  0.43556273  0.77897186  0.99214522     0.04800
C1511       C  0.42552805  0.75148878  0.97391689    -0.07500
C1512       C  0.45042408  0.74017675  0.96680046    -0.08300
C1513       C  0.48494531  0.75536205  0.97792005    -0.02800
C1514       C  0.99633354  0.78400107  0.99821827     0.04000
N1515       N  0.03065827  0.79889934  0.01065421     0.66500
H1516       H  0.48012920  0.81818601  0.01457209     0.15400
H1517       H  0.44211300  0.71828921  0.95344909     0.15100
N1518       N  0.39003865  0.73419609  0.96297147     0.74200
O1519       O  0.05723300  0.82850131  0.00302474    -0.39300
O1520       O  0.03147409  0.78866465  0.03230122    -0.39200
O1521       O  0.36468242  0.70491348  0.97200313    -0.39900
O1522       O  0.38282670  0.75056029  0.94643542    -0.40000
C1523       C  0.18084820  0.76124079  0.02404982    -0.12200
C1524       C  0.15833017  0.72513086  0.01556642     0.04800
C1525       C  0.17136790  0.70034105  0.01766088    -0.07500
C1526       C  0.20649143  0.71229577  0.02688956    -0.08300
C1527       C  0.22969076  0.74879346  0.03420088    -0.02800
C1528       C  0.21609757  0.77321614  0.03327770     0.04000
N1529       N  0.23839430  0.81078188  0.03995440     0.66500
H1530       H  0.17141719  0.78087705  0.02293814     0.15400
H1531       H  0.21622760  0.69285785  0.02748274     0.15100
N1532       N  0.15059782  0.66365350  0.00886495     0.74200
O1533       O  0.25639662  0.83390065  0.02348657    -0.39300
O1534       O  0.23278192  0.82172318  0.06022284    -0.39200
O1535       O  0.15829549  0.65579709  0.98815022    -0.39900
O1536       O  0.13196879  0.63828088  0.02388828    -0.40000
O1537       O  0.52204147  0.23198847  0.99231287    -0.85300
O1538       O  0.54633895  0.19777165  0.02136582    -0.82400
C1539       C  0.52154375  0.16425538  0.02026900     0.98100
O1540       O  0.51935408  0.14487833  0.00194809    -0.82400
O1541       O  0.51865050  0.12575332  0.95309540    -0.85100
C1542       C  0.99392752  0.13388047  0.94174463     1.02700
O1543       O  0.99584342  0.16455975  0.94180370    -0.77800
O1544       O  0.51600986  0.23197720  0.95237105    -0.78000
C1545       C  0.50827645  0.23800101  0.97382109     1.02600
O1546       O  0.59279421  0.27649389  0.96958642    -0.85300
O1547       O  0.61789795  0.23982615  0.99711223    -0.82400
C1548       C  0.62315715  0.21499012  0.00509940     0.98200
O1549       O  0.59815977  0.18184609  0.00290938    -0.82400
O1550       O  0.59642538  0.17061082  0.95242386    -0.85000
C1551       C  0.59086881  0.17332547  0.92993102     1.02600
O1552       O  0.56513804  0.17891816  0.92326971    -0.77800
O1553       O  0.58683893  0.24870852  0.93435730    -0.78000
C1554       C  0.60137689  0.27727220  0.94711901     1.02600
Cr1555     Cr  0.56895963  0.23375162  0.99325417     1.93700
Cr1556     Cr  0.55801505  0.15897143  0.97723402     1.93200
Cr1557     Cr  0.54133790  0.20409477  0.94109287     1.39100
O1558       O  0.55632759  0.19929310  0.97047351    -1.23100
O1559       O  0.76132386  0.47858066  0.85023346    -0.85300
O1560       O  0.79611658  0.45511310  0.82055918    -0.82400
C1561       C  0.83011721  0.47855056  0.82131445     0.98100
O1562       O  0.84930445  0.48037205  0.83957011    -0.82400
O1563       O  0.86721216  0.48368014  0.88835076    -0.85100
C1564       C  0.86784166  0.01063569  0.89676044     1.02700
O1565       O  0.83391201  0.50852905  0.89650844    -0.77800
O1566       O  0.76055617  0.48331606  0.89027892    -0.78000
C1567       C  0.75583887  0.49224395  0.86905343     1.02600
O1568       O  0.71796072  0.40694670  0.87285738    -0.85300
O1569       O  0.75413960  0.38266727  0.84363434    -0.82400
C1570       C  0.77952144  0.37726517  0.83703552     0.98200
O1571       O  0.81245967  0.40193889  0.84031913    -0.82400
O1572       O  0.82283225  0.40551108  0.89081547    -0.85000
C1573       C  0.82131437  0.41256153  0.91319831     1.02600
O1574       O  0.81656203  0.43891421  0.91932726    -0.77800
O1575       O  0.74621454  0.41388581  0.90811451    -0.78000
C1576       C  0.71771248  0.39847597  0.89534573     1.02600
Cr1577     Cr  0.76011280  0.43174208  0.84869421     1.93700
Cr1578     Cr  0.83471674  0.44292657  0.86515970     1.93200
Cr1579     Cr  0.78979245  0.46013319  0.90103826     1.39100
O1580       O  0.79452022  0.44469804  0.87155120    -1.23100
O1581       O  0.76025009  0.28086353  0.32446923    -0.85300
O1582       O  0.79681541  0.34017664  0.35318649    -0.82400
C1583       C  0.83027973  0.34822803  0.35219821     0.98100
O1584       O  0.85008280  0.36541973  0.33406331    -0.82400
O1585       O  0.86992086  0.38341834  0.28563369    -0.85100
C1586       C  0.86857440  0.35430093  0.27841758     1.02700
O1587       O  0.83853357  0.32478245  0.27906998    -0.77800
O1588       O  0.76436043  0.27355246  0.28499051    -0.78000
C1589       C  0.75573605  0.26036223  0.30656790     1.02600
O1590       O  0.71951627  0.31039960  0.29942867    -0.85300
O1591       O  0.75637581  0.37117453  0.32772584    -0.82400
C1592       C  0.78152234  0.40034603  0.33650376     0.98200
O1593       O  0.81421470  0.40746659  0.33447657    -0.82400
O1594       O  0.82395549  0.41481578  0.28346504    -0.85000
C1595       C  0.82369853  0.40675874  0.26101625     1.02600
O1596       O  0.81988923  0.37574316  0.25498071    -0.77800
O1597       O  0.74912262  0.32737161  0.26428307    -0.78000
C1598       C  0.72055611  0.31752077  0.27655731     1.02600
Cr1599     Cr  0.76100215  0.32731382  0.32439549     1.93700
Cr1600     Cr  0.83636315  0.38958504  0.30898471     1.93200
Cr1601     Cr  0.79332300  0.32671545  0.27322347     1.39100
O1602       O  0.79640163  0.34750834  0.30217339    -1.23100
O1603       O  0.52054555  0.28417185  0.18191338    -0.85300
O1604       O  0.54574271  0.34417614  0.15368395    -0.82400
C1605       C  0.52002403  0.35145038  0.15583726     0.98100
O1606       O  0.51861845  0.36882633  0.17427949    -0.82400
O1607       O  0.52057875  0.38754122  0.22277531    -0.85100
C1608       C  0.99291586  0.35957486  0.22909117     1.02700
O1609       O  0.99410504  0.33045191  0.22845410    -0.77800
O1610       O  0.51519184  0.27761336  0.22194162    -0.78000
C1611       C  0.50727505  0.26436364  0.20047960     1.02600
O1612       O  0.59092109  0.30892014  0.20419009    -0.85300
O1613       O  0.61744964  0.37108687  0.17737294    -0.82400
C1614       C  0.62294645  0.40147755  0.16994886     0.98200
O1615       O  0.59783491  0.40936749  0.17212200    -0.82400
O1616       O  0.59828490  0.41758402  0.22298661    -0.85000
C1617       C  0.59129925  0.40899138  0.24541028     1.02600
O1618       O  0.56405892  0.37830843  0.25151883    -0.77800
O1619       O  0.58519191  0.32903482  0.24046620    -0.78000
C1620       C  0.59949441  0.31571997  0.22672673     1.02600
Cr1621     Cr  0.56787259  0.32884490  0.18104790     1.93700
Cr1622     Cr  0.55879432  0.39277721  0.19831717     1.93200
Cr1623     Cr  0.54038220  0.32991550  0.23357443     1.39100
O1624       O  0.55603675  0.35031181  0.20441063    -1.23100
O1625       O  0.78144776  0.04008427  0.14453706    -0.85300
O1626       O  0.82125492  0.02651675  0.17899175    -0.82400
C1627       C  0.84565350  0.01929550  0.18578426     0.98100
O1628       O  0.87751602  0.03681208  0.17666507    -0.82400
O1629       O  0.87161205  0.00308198  0.13233775    -0.85100
C1630       C  0.86090683  0.49194436  0.11224982     1.02700
O1631       O  0.84944483  0.50914110  0.09971381    -0.77800
O1632       O  0.78787717  0.00363647  0.11901577    -0.78000
C1633       C  0.76807628  0.00972199  0.13356874     1.02600
O1634       O  0.84126746  0.11367030  0.13778161    -0.85300
O1635       O  0.87665513  0.10241182  0.17764324    -0.82400
C1636       C  0.90932774  0.11942777  0.17036521     0.98200
O1637       O  0.91922134  0.10679064  0.15281771    -0.82400
O1638       O  0.91675134  0.07262406  0.10922747    -0.85000
C1639       C  0.91013500  0.08868501  0.09201817     1.02600
O1640       O  0.87910729  0.08630024  0.09033046    -0.77800
O1641       O  0.81338338  0.07835987  0.10640328    -0.78000
C1642       C  0.82809981  0.10951264  0.11626216     1.02600
Cr1643     Cr  0.83179858  0.06984401  0.15809027     1.93700
Cr1644     Cr  0.89320091  0.05503818  0.14235998     1.93200
Cr1645     Cr  0.83408485  0.04544363  0.10556904     1.39100
O1646       O  0.85321722  0.05665955  0.13537257    -1.23100
O1647       O  0.78397791  0.24780047  0.02804057    -0.85300
O1648       O  0.82570189  0.30093857  0.99411887    -0.82400
C1649       C  0.85094633  0.33182587  0.98679001     0.98100
O1650       O  0.88253386  0.34645951  0.99632794    -0.82400
O1651       O  0.87805983  0.37475449  0.04115960    -0.85100
C1652       C  0.86649480  0.37377103  0.06269555     1.02700
O1653       O  0.85466022  0.34528992  0.07544367    -0.77800
O1654       O  0.79043378  0.29052394  0.05369304    -0.78000
C1655       C  0.77043182  0.26444753  0.03929321     1.02600
O1656       O  0.84235619  0.23220288  0.03506619    -0.85300
O1657       O  0.87883492  0.27814063  0.99533482    -0.82400
C1658       C  0.91143395  0.29268645  0.00252926     0.98200
O1659       O  0.92198452  0.31523413  0.02004959    -0.82400
O1660       O  0.92077359  0.34625072  0.06363281    -0.85000
C1661       C  0.91275089  0.32286106  0.08059192     1.02600
O1662       O  0.88037804  0.29623531  0.08271150    -0.77800
O1663       O  0.81434466  0.23999188  0.06623156    -0.78000
C1664       C  0.82879171  0.22328782  0.05646307     1.02600
Cr1665     Cr  0.83437884  0.26726070  0.01482630     1.93700
Cr1666     Cr  0.89751806  0.34245286  0.03072009     1.93200
Cr1667     Cr  0.83637434  0.29375033  0.06718517     1.39100
O1668       O  0.85624702  0.30160142  0.03753454    -1.23100
O1669       O  0.75963109  0.21736993  0.81065570    -0.85300
O1670       O  0.70565370  0.17794574  0.84528238    -0.82400
C1671       C  0.67436662  0.15364570  0.85278019     0.98100
O1672       O  0.65805859  0.12176939  0.84327662    -0.82400
O1673       O  0.62613021  0.12103801  0.79834461    -0.85100
C1674       C  0.62797474  0.13692938  0.77828012     1.02700
O1675       O  0.65725097  0.15366395  0.76644374    -0.77800
O1676       O  0.71537416  0.21339415  0.78844087    -0.78000
C1677       C  0.74233244  0.23205310  0.80242309     1.02600
O1678       O  0.76861794  0.15558628  0.80231441    -0.85300
O1679       O  0.72540285  0.12273097  0.84379628    -0.82400
C1680       C  0.71134424  0.09021981  0.83659710     0.98200
O1681       O  0.68766521  0.07911447  0.81986264    -0.82400
O1682       O  0.65612767  0.08042618  0.77690176    -0.85000
C1683       C  0.67545573  0.09022106  0.75763961     1.02600
O1684       O  0.70027047  0.12305672  0.75414776    -0.77800
O1685       O  0.76121360  0.18434033  0.77133762    -0.78000
C1686       C  0.77665993  0.16822085  0.78061686     1.02600
Cr1687     Cr  0.73692605  0.16663237  0.82371369     1.93700
Cr1688     Cr  0.66046091  0.10416938  0.80921772     1.93200
Cr1689     Cr  0.70805886  0.16716339  0.77256012     1.39100
O1690       O  0.70111672  0.14557122  0.80168036    -1.23100
O1691       O  0.95672964  0.21079565  0.69454088    -0.85300
O1692       O  0.97124732  0.17101267  0.66072021    -0.82400
C1693       C  0.97860380  0.14684343  0.65365414     0.98100
O1694       O  0.96141000  0.11462176  0.66227100    -0.82400
O1695       O  0.99730304  0.12116785  0.70580644    -0.85100
C1696       C  0.51204595  0.13923650  0.72569887     1.02700
O1697       O  0.49505726  0.14963948  0.73941788    -0.77800
O1698       O  0.99585345  0.20720245  0.71877874    -0.78000
C1699       C  0.98779637  0.22580989  0.70452659     1.02600
O1700       O  0.88525027  0.14913524  0.70300365    -0.85300
O1701       O  0.89610604  0.11379489  0.66293742    -0.82400
C1702       C  0.87799645  0.08222531  0.67199406     0.98200
O1703       O  0.89191973  0.07266885  0.68879880    -0.82400
O1704       O  0.92977271  0.07692592  0.73042351    -0.85000
C1705       C  0.91427261  0.08399612  0.74770934     1.02600
O1706       O  0.91769605  0.11540713  0.74980585    -0.77800
O1707       O  0.92140246  0.17859000  0.73376980    -0.78000
C1708       C  0.88995748  0.16266607  0.72446176     1.02600
Cr1709     Cr  0.92831437  0.15964281  0.68184769     1.93700
Cr1710     Cr  0.94489956  0.09942297  0.69711547     1.93200
Cr1711     Cr  0.95638569  0.16049695  0.73344849     1.39100
O1712       O  0.94363517  0.13980891  0.70416700    -1.23100
O1713       O  0.96370910  0.23841502  0.47633175    -0.85300
O1714       O  0.97116892  0.28833594  0.51162424    -0.82400
C1715       C  0.97696057  0.31934406  0.51863374     0.98100
O1716       O  0.96103620  0.33460405  0.50837074    -0.82400
O1717       O  0.99614483  0.36430096  0.46483272    -0.85100
C1718       C  0.50946055  0.36815167  0.44388472     1.02700
O1719       O  0.49538577  0.34013477  0.43048672    -0.77800
O1720       O  0.00132008  0.28304981  0.45234076    -0.78000
C1721       C  0.99517342  0.25717851  0.46689864     1.02600
O1722       O  0.88968495  0.22363214  0.46719801    -0.85300
O1723       O  0.89571464  0.26632304  0.50716453    -0.82400
C1724       C  0.87774110  0.28050874  0.49908214     0.98200
O1725       O  0.89128996  0.30426279  0.48238513    -0.82400
O1726       O  0.92699049  0.33708569  0.44006745    -0.85000
C1727       C  0.91299453  0.31473058  0.42233153     1.02600
O1728       O  0.91868762  0.28808741  0.42006319    -0.77800
O1729       O  0.92743280  0.23133448  0.43727509    -0.78000
C1730       C  0.89566278  0.21502460  0.44622028     1.02600
Cr1731     Cr  0.93101758  0.25659953  0.48884581     1.93700
Cr1732     Cr  0.94394301  0.33203109  0.47354997     1.93200
Cr1733     Cr  0.95916688  0.28543047  0.43711163     1.39100
O1734       O  0.94504820  0.29185484  0.46657108    -1.23100
O1735       O  0.75682435  0.03346647  0.35992077    -0.85300
O1736       O  0.70040083  0.02098824  0.32910813    -0.82400
C1737       C  0.66841685  0.01373259  0.32371135     0.98100
O1738       O  0.65336483  0.02899351  0.33502080    -0.82400
O1739       O  0.63341290  0.99500110  0.37940883    -0.85100
C1740       C  0.63591586  0.48987115  0.40082800     1.02700
O1741       O  0.66466907  0.50852995  0.41296727    -0.77800
O1742       O  0.71829670  0.99722390  0.38779115    -0.78000
C1743       C  0.74214589  0.00343596  0.37144426     1.02600
O1744       O  0.77027951  0.10652572  0.36858846    -0.85300
O1745       O  0.71908661  0.09588087  0.33302014    -0.82400
C1746       C  0.70408484  0.11271780  0.34202577     0.98200
O1747       O  0.68281939  0.09923778  0.36013897    -0.82400
O1748       O  0.65700694  0.06313350  0.40404563    -0.85000
C1749       C  0.68186814  0.08087879  0.41968956     1.02600
O1750       O  0.71112483  0.07934272  0.41950527    -0.77800
O1751       O  0.76810517  0.07209495  0.39934253    -0.78000
C1752       C  0.78341623  0.10235708  0.38833381     1.02600
Cr1753     Cr  0.73437060  0.06331835  0.34949623     1.93700
Cr1754     Cr  0.65999422  0.04688736  0.36988485     1.93200
Cr1755     Cr  0.71449056  0.03863274  0.40283433     1.39100
O1756       O  0.70273152  0.04953174  0.37405000    -1.23100
O1757       O  0.70690063  0.47645023  0.65799995    -0.85300
O1758       O  0.64745325  0.45047175  0.68626093    -0.82400
C1759       C  0.63907457  0.47555746  0.68468164     0.98100
O1760       O  0.62140104  0.47680001  0.66636950    -0.82400
O1761       O  0.60552935  0.47849700  0.61746768    -0.85100
C1762       C  0.63485749  0.00450326  0.61016913     1.02700
O1763       O  0.66462266  0.50611525  0.61270432    -0.77800
O1764       O  0.71556762  0.48359758  0.61840097    -0.78000
C1765       C  0.72802349  0.49082393  0.64013750     1.02600
O1766       O  0.68212078  0.40616933  0.63355208    -0.85300
O1767       O  0.61995911  0.37919740  0.66135272    -0.82400
C1768       C  0.58980924  0.37375101  0.66936720     0.98200
O1769       O  0.58143947  0.39848181  0.66691628    -0.82400
O1770       O  0.57540660  0.39998171  0.61609917    -0.85000
C1771       C  0.58438343  0.40793150  0.59386796     1.02600
O1772       O  0.61437534  0.43657548  0.58827901    -0.77800
O1773       O  0.66166802  0.41442593  0.59845914    -0.78000
C1774       C  0.67504215  0.39900320  0.61074580     1.02600
Cr1775     Cr  0.66249527  0.42882298  0.65808451     1.93700
Cr1776     Cr  0.59884810  0.43854184  0.64137409     1.93200
Cr1777     Cr  0.66267288  0.45929667  0.60669910     1.39100
O1778       O  0.64153337  0.44193294  0.63542087    -1.23100
O1779       O  0.71991932  0.25542881  0.53047000    -0.85300
O1780       O  0.67992133  0.20347019  0.49524486    -0.82400
C1781       C  0.65545772  0.17201329  0.48815997     0.98100
O1782       O  0.62355338  0.15784981  0.49722048    -0.82400
O1783       O  0.62932139  0.12863099  0.54134666    -0.85100
C1784       C  0.63862178  0.12814775  0.56333203     1.02700
O1785       O  0.65020631  0.15607394  0.57666655    -0.77800
O1786       O  0.71479881  0.21200236  0.55462933    -0.78000
C1787       C  0.73348070  0.23726387  0.53927181     1.02600
O1788       O  0.66224603  0.27051921  0.53816615    -0.85300
O1789       O  0.62496085  0.22515461  0.49825341    -0.82400
C1790       C  0.59266701  0.21073114  0.50630008     0.98200
O1791       O  0.58229721  0.18646752  0.52266855    -0.82400
O1792       O  0.58542841  0.15384142  0.56482412    -0.85000
C1793       C  0.59176655  0.17729867  0.58137955     1.02600
O1794       O  0.62370110  0.20464080  0.58400024    -0.77800
O1795       O  0.69018216  0.26217204  0.56913333    -0.78000
C1796       C  0.67694023  0.27994857  0.55927030     1.02600
Cr1797     Cr  0.67010022  0.23606191  0.51700660     1.93700
Cr1798     Cr  0.60834606  0.15989271  0.53186230     1.93200
Cr1799     Cr  0.66852902  0.20813507  0.56886702     1.39100
O1800       O  0.64881642  0.20103368  0.53922523    -1.23100
C1801       C  0.64904202  0.07540366  0.56224741    -0.12200
C1802       C  0.63503598  0.09483820  0.57451919     0.04800
C1803       C  0.61969686  0.08346685  0.59828981    -0.07500
C1804       C  0.61871240  0.05309299  0.60922855    -0.08300
C1805       C  0.63427737  0.03480879  0.59745323    -0.02800
C1806       C  0.64939911  0.04593473  0.57369162     0.04000
N1807       N  0.66490638  0.02738580  0.56086120     0.66500
H1808       H  0.66097293  0.08395929  0.54408228     0.15400
H1809       H  0.60698147  0.04462164  0.62745838     0.15100
N1810       N  0.60507041  0.10242723  0.61167371     0.74200
O1811       O  0.64549246  0.00245987  0.54574004    -0.39300
O1812       O  0.69919178  0.04145009  0.56022595    -0.39200
O1813       O  0.57108169  0.08667535  0.61537004    -0.39900
O1814       O  0.62599038  0.12869023  0.62546831    -0.40000
C1815       C  0.68268708  0.34416969  0.61084530    -0.12200
C1816       C  0.68102166  0.37160309  0.59761685     0.04800
C1817       C  0.68078659  0.37011493  0.57149346    -0.07500
C1818       C  0.67896490  0.33995117  0.55942381    -0.08300
C1819       C  0.67958403  0.31189334  0.57267414    -0.02800
C1820       C  0.68267803  0.31486780  0.59873126     0.04000
N1821       N  0.68500398  0.28805595  0.61340178     0.66500
H1822       H  0.68308548  0.34489318  0.63078694     0.15400
H1823       H  0.67788398  0.33891682  0.53950486     0.15100
N1824       N  0.68282593  0.39927741  0.55689180     0.74200
O1825       O  0.71613327  0.29266277  0.61854354    -0.39300
O1826       O  0.65802829  0.26663930  0.62647137    -0.39200
O1827       O  0.71093213  0.43066179  0.55781726    -0.39900
O1828       O  0.65559230  0.39436107  0.54439305    -0.40000
C1829       C  0.63519584  0.11441614  0.46415592    -0.12200
C1830       C  0.66320440  0.15021629  0.46966082     0.04800
C1831       C  0.69796966  0.16246307  0.45880510    -0.07500
C1832       C  0.70388760  0.13916954  0.44328536    -0.08300
C1833       C  0.67580795  0.10356425  0.43800828    -0.02800
C1834       C  0.64110814  0.09123546  0.44874671     0.04000
N1835       N  0.61198138  0.05449793  0.44529376     0.66500
H1836       H  0.60831198  0.10362579  0.47239481     0.15400
H1837       H  0.73063980  0.14932230  0.43493230     0.15100
N1838       N  0.72794260  0.19808004  0.46366442     0.74200
O1839       O  0.60856071  0.03006964  0.46017398    -0.39300
O1840       O  0.58540919  0.04851298  0.43166643    -0.39200
O1841       O  0.75099280  0.20156664  0.47969080    -0.39900
O1842       O  0.73663442  0.22295393  0.44786177    -0.40000
C1843       C  0.03036549  0.37630334  0.53316126    -0.12200
C1844       C  0.00423339  0.33980048  0.53802601     0.04800
C1845       C  0.52416668  0.38523336  0.53813263    -0.07500
C1846       C  0.55013346  0.40434391  0.55634653    -0.08300
C1847       C  0.55830426  0.38597077  0.57432901    -0.02800
C1848       C  0.54062925  0.34736014  0.57358266     0.04000
N1849       N  0.54889353  0.32745285  0.59119349     0.66500
H1850       H  0.03022803  0.38836569  0.51550379     0.15400
H1851       H  0.56349521  0.43406185  0.55676434     0.15100
N1852       N  0.51691659  0.40588337  0.52054763     0.74200
O1853       O  0.11088978  0.44137576  0.53179725    -0.39300
O1854       O  0.57104645  0.31682240  0.58551600    -0.39200
O1855       O  0.49495903  0.41680389  0.52610829    -0.39900
O1856       O  0.53904998  0.42109835  0.50304487    -0.40000
C1857       C  0.57444068  0.41604782  0.44650218    -0.12200
C1858       C  0.54105589  0.40096362  0.43420278     0.04800
C1859       C  0.53895337  0.41508190  0.41122544    -0.07500
C1860       C  0.57006743  0.44415591  0.40099072    -0.08300
C1861       C  0.60401782  0.45881549  0.41268599    -0.02800
C1862       C  0.60608108  0.44443116  0.43584240     0.04000
N1863       N  0.64004605  0.45703667  0.44831397     0.66500
H1864       H  0.57629267  0.40458280  0.46398484     0.15400
H1865       H  0.56742824  0.45526282  0.38359154     0.15100
N1866       N  0.50548032  0.39967289  0.39779364     0.74200
O1867       O  0.64848492  0.47967116  0.46570729    -0.39300
O1868       O  0.65644100  0.43908346  0.44625263    -0.39200
O1869       O  0.48703933  0.41568168  0.39797703    -0.39900
O1870       O  0.49979639  0.37660955  0.38113949    -0.40000
C1871       C  0.81174721  0.16322299  0.40684670    -0.12200
C1872       C  0.81480983  0.13293328  0.40017020     0.04800
C1873       C  0.84449592  0.12975265  0.40886102    -0.07500
C1874       C  0.87039076  0.15668900  0.42420676    -0.08300
C1875       C  0.86637729  0.18606906  0.43181513    -0.02800
C1876       C  0.83702265  0.18958874  0.42283197     0.04000
N1877       N  0.83259809  0.21982184  0.42949846     0.66500
H1878       H  0.78852798  0.16547519  0.40063115     0.15400
H1879       H  0.89367293  0.15451965  0.43037374     0.15100
N1880       N  0.84950783  0.10011183  0.40160181     0.74200
O1881       O  0.83510363  0.24189727  0.41299081    -0.39300
O1882       O  0.81579331  0.21797598  0.44909883    -0.39200
O1883       O  0.87303616  0.10582194  0.38529141    -0.39900
O1884       O  0.83943163  0.07332425  0.41599088    -0.40000
C1885       C  0.01110609  0.20975364  0.47757279    -0.12200
C1886       C  0.52048118  0.24714923  0.47695951     0.04800
C1887       C  0.55346592  0.25583654  0.46486828    -0.07500
C1888       C  0.57634438  0.24354568  0.47459675    -0.08300
C1889       C  0.56726056  0.22257641  0.49633285    -0.02800
C1890       C  0.53447921  0.21442032  0.50848227     0.04000
N1891       N  0.52377041  0.19449081  0.53105332     0.66500
H1892       H  0.98272009  0.18930545  0.47425719     0.15400
H1893       H  0.60141484  0.25033563  0.46485664     0.15100
N1894       N  0.56386051  0.27618156  0.44248571     0.74200
O1895       O  0.99885501  0.14302098  0.50680161    -0.39300
O1896       O  0.49733972  0.16207437  0.53090730    -0.39200
O1897       O  0.58847539  0.30943306  0.44298502    -0.39900
O1898       O  0.55604762  0.25915325  0.42229831    -0.40000
C1899       C  0.78387434  0.27006200  0.50942437    -0.12200
C1900       C  0.77084713  0.24724164  0.53029558     0.04800
C1901       C  0.79349296  0.23511740  0.54072501    -0.07500
C1902       C  0.82811868  0.24625712  0.53035902    -0.08300
C1903       C  0.84091723  0.26927535  0.50953388    -0.02800
C1904       C  0.81785372  0.28071488  0.49894505     0.04000
N1905       N  0.82776959  0.30237730  0.47708214     0.66500
H1906       H  0.76704303  0.27930210  0.50038386     0.15400
H1907       H  0.84522574  0.23692012  0.53887102     0.15100
N1908       N  0.78247594  0.21246060  0.56208239     0.74200
O1909       O  0.81711335  0.28670322  0.45652252    -0.39300
O1910       O  0.83874693  0.33612452  0.47873807    -0.39200
O1911       O  0.77192596  0.17886960  0.55981196    -0.39900
O1912       O  0.79211525  0.22724112  0.58298318    -0.40000
C1913       C  0.99759116  0.14439127  0.61077754    -0.12200
C1914       C  0.00738859  0.15571947  0.63510372     0.04800
C1915       C  0.54004291  0.19499844  0.63168488    -0.07500
C1916       C  0.56692299  0.19971553  0.61459559    -0.08300
C1917       C  0.56139056  0.17184497  0.59803522    -0.02800
C1918       C  0.52675056  0.13926333  0.59788554     0.04000
N1919       N  0.51752707  0.11067894  0.58032284     0.66500
H1920       H  0.96899306  0.13090585  0.60543940     0.15400
H1921       H  0.59249959  0.22532586  0.61455379     0.15100
N1922       N  0.54834255  0.22343555  0.64911640     0.74200
O1923       O  0.00233191  0.10765529  0.56143076    -0.39300
O1924       O  0.50188154  0.11089403  0.56065427    -0.39200
O1925       O  0.56693970  0.22577163  0.66786690    -0.39900
O1926       O  0.54618914  0.25095199  0.64256708    -0.40000
C1927       C  0.55056157  0.28080953  0.70104479    -0.12200
C1928       C  0.51297123  0.26800661  0.69992896     0.04800
C1929       C  0.50116904  0.29198055  0.69107522    -0.07500
C1930       C  0.52670244  0.32662703  0.68205076    -0.08300
C1931       C  0.56414947  0.33836636  0.68149462    -0.02800
C1932       C  0.57607070  0.31537871  0.69190845     0.04000
N1933       N  0.61399355  0.32672072  0.69359251     0.66500
H1934       H  0.56034519  0.26320476  0.70819612     0.15400
H1935       H  0.51687053  0.34409438  0.67471951     0.15100
N1936       N  0.96498415  0.27773904  0.68714000     0.74200
O1937       O  0.63094045  0.34128234  0.71323994    -0.39300
O1938       O  0.62776221  0.31448234  0.67833468    -0.39200
O1939       O  0.95119224  0.28850693  0.70341448    -0.39900
O1940       O  0.94867695  0.26634089  0.66684985    -0.40000
C1941       C  0.83053364  0.05727423  0.63857556    -0.12200
C1942       C  0.84013393  0.05719223  0.66337284     0.04800
C1943       C  0.81255081  0.03484919  0.68015648    -0.07500
C1944       C  0.77945630  0.50711261  0.66853390    -0.08300
C1945       C  0.76644891  0.01366007  0.64746203    -0.02800
C1946       C  0.79416333  0.03542555  0.63043228     0.04000
N1947       N  0.78598869  0.03613705  0.60504793     0.66500
H1948       H  0.85146739  0.07447026  0.62538924     0.15400
H1949       H  0.76058376  0.48440061  0.68002951     0.15100
N1950       N  0.82376518  0.52162221  0.70104543     0.74200
O1951       O  0.78061155  0.06118514  0.59726148    -0.39300
O1952       O  0.79230591  0.01734995  0.58985728    -0.39200
O1953       O  0.81363505  0.53187952  0.71978597    -0.39900
O1954       O  0.83246628  0.49722192  0.70332042    -0.40000
C1955       C  0.66522477  0.02877388  0.74654258    -0.12200
C1956       C  0.66818205  0.06195753  0.73902848     0.04800
C1957       C  0.66164230  0.06639021  0.71426460    -0.07500
C1958       C  0.65213916  0.03776388  0.69765719    -0.08300
C1959       C  0.65028173  0.50486868  0.70358190    -0.02800
C1960       C  0.65915444  0.50166690  0.72816126     0.04000
N1961       N  0.65908514  0.46962596  0.73660688     0.66500
H1962       H  0.66999775  0.02501882  0.76569716     0.15400
H1963       H  0.64692832  0.04185537  0.67867617     0.15100
N1964       N  0.66189159  0.09864664  0.70599424     0.74200
O1965       O  0.68879310  0.46934624  0.73712673    -0.39300
O1966       O  0.63231278  0.44631079  0.74904858    -0.39200
O1967       O  0.68671994  0.12009834  0.69149719    -0.39900
O1968       O  0.63294016  0.10024690  0.70758617    -0.40000
C1969       C  0.59908302  0.16997150  0.76106475    -0.12200
C1970       C  0.59606476  0.13632353  0.76711163     0.04800
C1971       C  0.56694539  0.10385539  0.75723961    -0.07500
C1972       C  0.54114283  0.10564134  0.74202691    -0.08300
C1973       C  0.54390218  0.13930023  0.73640757    -0.02800
C1974       C  0.57320089  0.17171978  0.74607172     0.04000
N1975       N  0.57749060  0.20666954  0.74032092     0.66500
H1976       H  0.62229129  0.19528679  0.76768641     0.15400
H1977       H  0.51813415  0.08041184  0.73512861     0.15100
N1978       N  0.56400901  0.06913612  0.76165034     0.74200
O1979       O  0.56702431  0.22202781  0.75560983    -0.39300
O1980       O  0.59924554  0.22548892  0.72339584    -0.39200
O1981       O  0.54073384  0.04758660  0.77694711    -0.39900
O1982       O  0.57748710  0.05673804  0.74629021    -0.40000
C1983       C  0.83086644  0.16171481  0.72673637    -0.12200
C1984       C  0.85985394  0.16165160  0.73891078     0.04800
C1985       C  0.86052862  0.16236265  0.76502710    -0.07500
C1986       C  0.83288394  0.16383781  0.77813036    -0.08300
C1987       C  0.80464503  0.16536405  0.76597668    -0.02800
C1988       C  0.80366950  0.16407918  0.73988103     0.04000
N1989       N  0.77492007  0.16427932  0.72628497     0.66500
H1990       H  0.82983540  0.16107537  0.70675581     0.15400
H1991       H  0.83419472  0.16487216  0.79809615     0.15100
N1992       N  0.88899532  0.16161220  0.77870411     0.74200
O1993       O  0.77908527  0.19442404  0.71882852    -0.39300
O1994       O  0.75173973  0.13517789  0.71578268    -0.39200
O1995       O  0.91511863  0.19134505  0.78661203    -0.39900
O1996       O  0.88263528  0.13208894  0.78875158    -0.40000
C1997       C  0.86428485  0.46138476  0.07413712    -0.12200
C1998       C  0.86309289  0.46178075  0.10005358     0.04800
C1999       C  0.86473690  0.43400470  0.11320205    -0.07500
C2000       C  0.86664466  0.40638153  0.10042650    -0.08300
C2001       C  0.86736229  0.40568310  0.07454172    -0.02800
C2002       C  0.86709141  0.43415032  0.06133743     0.04000
N2003       N  0.86894804  0.43556984  0.03509027     0.66500
H2004       H  0.86330721  0.48268178  0.06355290     0.15400
H2005       H  0.86730352  0.38495952  0.11108627     0.15100
N2006       N  0.86308440  0.43244213  0.13942263     0.74200
O2007       O  0.83998505  0.42440748  0.02279156    -0.39300
O2008       O  0.89943064  0.45508257  0.02473254    -0.39200
O2009       O  0.83264938  0.41268006  0.14976936    -0.39900
O2010       O  0.89208947  0.44230770  0.15141393    -0.40000
C2011       C  0.82787902  0.13638577  0.07557262    -0.12200
C2012       C  0.82960462  0.13983975  0.10150074     0.04800
C2013       C  0.83197366  0.17137335  0.11209041    -0.07500
C2014       C  0.83212681  0.19820829  0.09692215    -0.08300
C2015       C  0.82985305  0.19440537  0.07113229    -0.02800
C2016       C  0.82785086  0.16321122  0.06044894     0.04000
N2017       N  0.82387188  0.15751975  0.03445422     0.66500
H2018       H  0.82609942  0.11244298  0.06690435     0.13000
H2019       H  0.83373533  0.22216554  0.10548216     0.15100
N2020       N  0.83230805  0.17584236  0.13813894     0.74200
O2021       O  0.85166199  0.16627581  0.02129924    -0.39300
O2022       O  0.79370490  0.14874348  0.02435327    -0.39200
O2023       O  0.86199548  0.19737118  0.14873997    -0.39900
O2024       O  0.80252684  0.16575314  0.14924508    -0.40000
C2025       C  0.93056478  0.31410360  0.12280306    -0.12200
C2026       C  0.94130025  0.32787552  0.09888738     0.04800
C2027       C  0.97923861  0.34718172  0.09335126    -0.07500
C2028       C  0.50261757  0.35264847  0.11236954    -0.08300
C2029       C  0.49188170  0.34068963  0.13646347    -0.02800
C2030       C  0.95648924  0.32085792  0.14118335     0.04000
N2031       N  0.94398111  0.30687872  0.16534824     0.66500
H2032       H  0.90172736  0.29889574  0.12756944     0.15400
H2033       H  0.53153552  0.36843293  0.10787978     0.15100
N2034       N  0.99224221  0.36046615  0.06919508     0.74200
O2035       O  0.93406140  0.32386912  0.17963329    -0.39300
O2036       O  0.93466141  0.27408595  0.17004616    -0.39200
O2037       O  0.00283791  0.39349943  0.06430760    -0.39900
O2038       O  0.50280465  0.34457824  0.05703294    -0.40000
C2039       C  0.95326787  0.20600590  0.21011363    -0.12200
C2040       C  0.98572711  0.22711480  0.19706217     0.04800
C2041       C  0.49434137  0.20613305  0.18037101    -0.07500
C2042       C  0.96999006  0.17546398  0.17003692    -0.08300
C2043       C  0.93610569  0.15493148  0.18170602    -0.02800
C2044       C  0.92834204  0.17008678  0.20264087     0.04000
N2045       N  0.89529456  0.14984845  0.21632923     0.66500
H2046       H  0.94640514  0.21797780  0.22545346     0.15400
H2047       H  0.47856347  0.15690958  0.16047595     0.15100
N2048       N  0.53074724  0.22297005  0.17086035     0.74200
O2049       O  0.89532595  0.13242484  0.23514980    -0.39300
O2050       O  0.86984690  0.15693005  0.21351234    -0.39200
O2051       O  0.55369649  0.21637270  0.18094972    -0.39900
O2052       O  0.53711137  0.23651940  0.14952981    -0.40000
C2053       C  0.71795721  0.44472529  0.14061818    -0.12200
C2054       C  0.72946384  0.48205110  0.14269558     0.04800
C2055       C  0.70397008  0.99220736  0.14650683    -0.07500
C2056       C  0.66987775  0.46545926  0.16016818    -0.08300
C2057       C  0.65888583  0.42822740  0.15910872    -0.02800
C2058       C  0.68332510  0.41787808  0.14895738     0.04000
N2059       N  0.67369843  0.38034959  0.14708375     0.66500
H2060       H  0.73655054  0.43624707  0.13338897     0.15400
H2061       H  0.65119964  0.97494903  0.16189007     0.15100
N2062       N  0.71222955  0.02938851  0.14544146     0.74200
O2063       O  0.66054432  0.36344922  0.12718230    -0.39300
O2064       O  0.68654978  0.36741703  0.16246372    -0.39200
O2065       O  0.70123315  0.03980705  0.12728553    -0.39900
O2066       O  0.72180120  0.04842716  0.16481146    -0.40000
C2067       C  0.66883948  0.48499655  0.28243832    -0.12200
C2068       C  0.64967759  0.48712899  0.30290581     0.04800
C2069       C  0.61161624  0.46269337  0.30441431    -0.07500
C2070       C  0.59376206  0.43709988  0.28576478    -0.08300
C2071       C  0.61253482  0.43574601  0.26492278    -0.02800
C2072       C  0.65062953  0.45989581  0.26337592     0.04000
N2073       N  0.67145664  0.45803998  0.24328975     0.66500
H2074       H  0.69500987  0.01218459  0.27902410     0.15400
H2075       H  0.56456221  0.41816010  0.28757797     0.15100
N2076       N  0.59083206  0.46217138  0.32528871     0.74200
O2077       O  0.68163409  0.48156842  0.22637745    -0.39300
O2078       O  0.68657491  0.43889404  0.24539532    -0.39200
O2079       O  0.56986108  0.96504130  0.33075355    -0.39900
O2080       O  0.58310933  0.43816236  0.34159027    -0.40000
C2081       C  0.86544949  0.31809226  0.36335717    -0.12200
C2082       C  0.84718278  0.33636670  0.37134470     0.04800
C2083       C  0.84949481  0.34604668  0.39636310    -0.07500
C2084       C  0.87085093  0.33845994  0.41247564    -0.08300
C2085       C  0.88971647  0.32069599  0.40440604    -0.02800
C2086       C  0.88628451  0.30997332  0.37947287     0.04000
N2087       N  0.90516834  0.29255302  0.36979060     0.66500
H2088       H  0.86416156  0.31065552  0.34408105     0.15400
H2089       H  0.87306100  0.34706467  0.43153178     0.15100
N2090       N  0.83245928  0.36562284  0.40544332     0.74200
O2091       O  0.88818024  0.25821118  0.36744179    -0.39300
O2092       O  0.93415974  0.31134176  0.35766465    -0.39200
O2093       O  0.80403445  0.34896444  0.41845943    -0.39900
O2094       O  0.85072525  0.40010266  0.40624760    -0.40000
C2095       C  0.85418504  0.46656144  0.20333222    -0.12200
C2096       C  0.83935613  0.48945165  0.20726630     0.04800
C2097       C  0.80778245  0.97489153  0.22037533    -0.07500
C2098       C  0.81492468  0.45800232  0.24625694    -0.08300
C2099       C  0.82894850  0.43445138  0.24197327    -0.02800
C2100       C  0.84882321  0.43902528  0.22008249     0.04000
N2101       N  0.86562031  0.41751911  0.21522771     0.66500
H2102       H  0.87027548  0.47009601  0.18685274     0.15400
H2103       H  0.79991918  0.45533675  0.26313401     0.15100
N2104       N  0.78087134  0.98583633  0.21935398     0.74200
O2105       O  0.84879290  0.38881171  0.20247519    -0.39300
O2106       O  0.89957572  0.43146757  0.21847634    -0.39200
O2107       O  0.75242277  0.96728424  0.20667785    -0.39900
O2108       O  0.78155678  0.00823685  0.23502482    -0.40000
C2109       C  0.93422341  0.32645838  0.25157003    -0.12200
C2110       C  0.96109048  0.35923671  0.24092494     0.04800
C2111       C  0.95790779  0.39081934  0.24346788    -0.07500
C2112       C  0.92848823  0.38900294  0.25669063    -0.08300
C2113       C  0.90128088  0.35586403  0.26699324    -0.02800
C2114       C  0.90473819  0.32452881  0.26439926     0.04000
N2115       N  0.87820324  0.29002439  0.27413392     0.66500
H2116       H  0.93597141  0.30179453  0.25011337     0.15400
H2117       H  0.92638574  0.41342885  0.25822952     0.15100
N2118       N  0.98381126  0.42473236  0.23242383     0.74200
O2119       O  0.85673873  0.26584008  0.25929858    -0.39300
O2120       O  0.88356251  0.28052543  0.29500203    -0.39200
O2121       O  0.50046364  0.44577227  0.23085532    -0.39900
O2122       O  0.01055294  0.44822759  0.24479524    -0.40000
C2123       C  0.66390667  0.33330657  0.22885827    -0.12200
C2124       C  0.62850527  0.31055352  0.23720969     0.04800
C2125       C  0.62254068  0.28873941  0.25818055    -0.07500
C2126       C  0.65250088  0.29117981  0.27118748    -0.08300
C2127       C  0.68851620  0.31487638  0.26314513    -0.02800
C2128       C  0.69374525  0.33573751  0.24142619     0.04000
N2129       N  0.72928273  0.36177740  0.23266669     0.66500
H2130       H  0.66863063  0.35094288  0.21316559     0.15400
H2131       H  0.64761647  0.27431012  0.28729012     0.15100
N2132       N  0.58608821  0.26329377  0.26583021     0.74200
O2133       O  0.74317179  0.35277846  0.21538598    -0.39300
O2134       O  0.74102644  0.39525070  0.23672152    -0.39200
O2135       O  0.56679485  0.23529837  0.25286434    -0.39900
O2136       O  0.57098683  0.27242102  0.28219539    -0.40000
C2137       C  0.73434430  0.16090652  0.30974513    -0.12200
C2138       C  0.71250311  0.14855847  0.33105711     0.04800
C2139       C  0.70169325  0.17199356  0.34206116    -0.07500
C2140       C  0.71461752  0.20722806  0.33263290    -0.08300
C2141       C  0.73847192  0.22047832  0.31228198    -0.02800
C2142       C  0.74722288  0.19624179  0.30030754     0.04000
N2143       N  0.77217829  0.20788209  0.28023926     0.66500
H2144       H  0.74288294  0.14346646  0.30068049     0.15400
H2145       H  0.70666803  0.22495278  0.34197422     0.15100
N2146       N  0.67878946  0.16127373  0.36334971     0.74200
O2147       O  0.80353184  0.21225880  0.28403481    -0.39300
O2148       O  0.75966838  0.20160374  0.25862544    -0.39200
O2149       O  0.69305499  0.17236365  0.38425264    -0.39900
O2150       O  0.64493347  0.14885902  0.36073531    -0.40000
C2151       C  0.79770805  0.46386271  0.34667604    -0.12200
C2152       C  0.77282293  0.42651586  0.34874233     0.04800
C2153       C  0.73931502  0.41514542  0.36106092    -0.07500
C2154       C  0.73048555  0.44129075  0.36967667    -0.08300
C2155       C  0.75468777  0.47892152  0.36626456    -0.02800
C2156       C  0.78857177  0.98728335  0.35544751     0.04000
N2157       N  0.81684495  0.02468450  0.35558570     0.66500
H2158       H  0.82367162  0.47309873  0.33753555     0.15400
H2159       H  0.70424491  0.43208720  0.37834913     0.15100
N2160       N  0.71415576  0.37716074  0.36508793     0.74200
O2161       O  0.84183184  0.03461273  0.37139643    -0.39300
O2162       O  0.82317201  0.04324162  0.33616742    -0.39200
O2163       O  0.72255046  0.35904046  0.37942040    -0.39900
O2164       O  0.68569462  0.36079658  0.35210680    -0.40000
C2165       C  0.85796291  0.04981054  0.77309208    -0.12200
C2166       C  0.89200393  0.05489871  0.76563487     0.04800
C2167       C  0.90388805  0.03150379  0.77511385    -0.07500
C2168       C  0.88282266  0.00525672  0.79276050    -0.08300
C2169       C  0.84892020  0.50406010  0.80065718    -0.02800
C2170       C  0.83636758  0.02279008  0.79031673     0.04000
N2171       N  0.80254038  0.01956110  0.79797795     0.66500
H2172       H  0.84804119  0.06700815  0.76550432     0.15400
H2173       H  0.89463407  0.49463092  0.80214639     0.15100
N2174       N  0.93813922  0.03522101  0.76798201     0.74200
O2175       O  0.80279781  0.04129386  0.81403318    -0.39300
O2176       O  0.77390678  0.50448853  0.78306974    -0.39200
O2177       O  0.96573285  0.05318875  0.78150720    -0.39900
O2178       O  0.93873644  0.01391054  0.75193059    -0.40000
C2179       C  0.76921946  0.05487210  0.86686431    -0.12200
C2180       C  0.74503617  0.01722898  0.86686826     0.04800
C2181       C  0.70702791  0.50465865  0.85565575    -0.07500
C2182       C  0.69841464  0.02743232  0.84848168    -0.08300
C2183       C  0.72283435  0.06541551  0.84791739    -0.02800
C2184       C  0.75851726  0.07903406  0.85760702     0.04000
N2185       N  0.78535214  0.11696978  0.85629273     0.66500
H2186       H  0.79722282  0.06544321  0.87279467     0.15400
H2187       H  0.67009707  0.51874913  0.83845075     0.15100
N2188       N  0.68173105  0.46620687  0.85443814     0.74200
O2189       O  0.79171474  0.13670292  0.87514577    -0.39300
O2190       O  0.80863381  0.12792133  0.83917944    -0.39200
O2191       O  0.66763053  0.44869975  0.87400019    -0.39900
O2192       O  0.67924687  0.44889964  0.83492699    -0.40000
C2193       C  0.73132293  0.28507840  0.80356838    -0.12200
C2194       C  0.75368207  0.27047033  0.80967142     0.04800
C2195       C  0.78560724  0.29241122  0.82385836    -0.07500
C2196       C  0.79388729  0.32738703  0.83159053    -0.08300
C2197       C  0.77093285  0.34143843  0.82613805    -0.02800
C2198       C  0.73948077  0.31999570  0.81161741     0.04000
N2199       N  0.71625348  0.33368402  0.80399596     0.66500
H2200       H  0.70680008  0.26903514  0.79261779     0.15400
H2201       H  0.81808949  0.34326948  0.84287662     0.15100
N2202       N  0.80955277  0.27946501  0.83132167     0.74200
O2203       O  0.72369284  0.35188442  0.78434504    -0.39300
O2204       O  0.68418092  0.31915336  0.81242071    -0.39200
O2205       O  0.83952962  0.29074765  0.82020160    -0.39900
O2206       O  0.80528245  0.26495225  0.85223905    -0.40000
C2207       C  0.86233631  0.39391101  0.93259921    -0.12200
C2208       C  0.82821004  0.39178472  0.93218110     0.04800
C2209       C  0.80153092  0.36961764  0.94961284    -0.07500
C2210       C  0.80908896  0.34931297  0.96660007    -0.08300
C2211       C  0.84343471  0.35169437  0.96725046    -0.02800
C2212       C  0.87044557  0.37478914  0.95017002     0.04000
N2213       N  0.90608638  0.37883976  0.95015262     0.66500
H2214       H  0.88318300  0.41111836  0.91934915     0.15400
H2215       H  0.78820255  0.33233505  0.97989455     0.15100
N2216       N  0.76659010  0.36715107  0.95021840     0.74200
O2217       O  0.91287197  0.35955299  0.93572837    -0.39300
O2218       O  0.93226441  0.40697497  0.95976473    -0.39200
O2219       O  0.73940652  0.33939961  0.94108415    -0.39900
O2220       O  0.76133079  0.38700881  0.96511115    -0.40000
C2221       C  0.98756566  0.11584721  0.04605584    -0.12200
C2222       C  0.99486541  0.15058060  0.03856054     0.04800
C2223       C  0.97414505  0.16516648  0.04894769    -0.07500
C2224       C  0.94617135  0.14439646  0.06595878    -0.08300
C2225       C  0.93909503  0.10964238  0.07349124    -0.02800
C2226       C  0.96054972  0.09565525  0.06351859     0.04000
N2227       N  0.95416512  0.06015331  0.06996157     0.66500
H2228       H  0.00291774  0.10402687  0.03809634     0.15400
H2229       H  0.93018505  0.15573070  0.07357942     0.15100
N2230       N  0.48652136  0.19947600  0.04783843     0.74200
O2231       O  0.93491927  0.03357489  0.05589907    -0.39300
O2232       O  0.97535274  0.05748697  0.08505621    -0.39200
O2233       O  0.46581094  0.20553224  0.03439661    -0.39900
O2234       O  0.50834702  0.22422307  0.06224983    -0.40000
C2235       C  0.63017445  0.19557322  0.89245802    -0.12200
C2236       C  0.61406423  0.16921716  0.91109759     0.04800
C2237       C  0.62035425  0.13932639  0.91124006    -0.07500
C2238       C  0.64041954  0.13525619  0.89220926    -0.08300
C2239       C  0.65624264  0.16131963  0.87346940    -0.02800
C2240       C  0.65186844  0.19238847  0.87407012     0.04000
N2241       N  0.66825046  0.22032110  0.85580872     0.66500
H2242       H  0.62617073  0.21909996  0.89230874     0.15400
H2243       H  0.64385256  0.11137791  0.89215754     0.15100
N2244       N  0.60592757  0.11228365  0.93016512     0.74200
O2245       O  0.64952019  0.21967554  0.83757079    -0.39300
O2246       O  0.69736933  0.24952011  0.86090379    -0.39200
O2247       O  0.58052621  0.08055507  0.92492995    -0.39900
O2248       O  0.62556186  0.11634820  0.94864608    -0.40000
C2249       C  0.92999679  0.10360004  0.92643453    -0.12200
C2250       C  0.96217721  0.10227600  0.92991715     0.04800
C2251       C  0.96366080  0.07163138  0.92091619    -0.07500
C2252       C  0.93301896  0.04279476  0.90967849    -0.08300
C2253       C  0.90041550  0.04355206  0.90684433    -0.02800
C2254       C  0.89940497  0.07492457  0.91501204     0.04000
N2255       N  0.86781891  0.07852495  0.91178934     0.66500
H2256       H  0.92836480  0.12718074  0.93274662     0.15400
H2257       H  0.93490938  0.01943357  0.90320606     0.15100
N2258       N  0.48929115  0.05815266  0.93223140     0.74200
O2259       O  0.84582591  0.07088207  0.92948300    -0.39300
O2260       O  0.86732320  0.09806063  0.89442618    -0.39200
O2261       O  0.48721843  0.03992039  0.95113728    -0.39900
O2262       O  0.51099555  0.06131102  0.91523169    -0.40000
C2263       C  0.68263497  0.37145806  0.93369690    -0.12200
C2264       C  0.68424963  0.37032558  0.90782976     0.04800
C2265       C  0.65629414  0.34017535  0.89530480    -0.07500
C2266       C  0.62848155  0.31160282  0.90866471    -0.08300
C2267       C  0.62837433  0.31136382  0.93457553    -0.02800
C2268       C  0.65562114  0.34212872  0.94714526     0.04000
N2269       N  0.65837914  0.34282386  0.97334604     0.66500
H2270       H  0.70394356  0.39448578  0.94379219     0.15400
H2271       H  0.60777860  0.28827308  0.89845327     0.15100
N2272       N  0.65806031  0.33567424  0.86943639     0.74200
O2273       O  0.67537617  0.32887693  0.98349191    -0.39300
O2274       O  0.65203768  0.36455335  0.98546753    -0.39200
O2275       O  0.66909272  0.31462364  0.86183539    -0.39900
O2276       O  0.63973819  0.34392519  0.85521788    -0.40000
C2277       C  0.97291726  0.29914524  0.00032724    -0.12200
C2278       C  0.93741345  0.28292792  0.99091835     0.04800
C2279       C  0.92743419  0.25648492  0.97194835    -0.07500
C2280       C  0.95211210  0.24507843  0.96433030    -0.08300
C2281       C  0.98664869  0.25963530  0.97538269    -0.02800
C2282       C  0.49399013  0.28080147  0.99678988     0.04000
N2283       N  0.52832272  0.29642796  0.00925664     0.66500
H2284       H  0.98184842  0.32045192  0.01404968     0.15400
H2285       H  0.94365842  0.22371004  0.95062032     0.15100
N2286       N  0.89225734  0.24044975  0.96061971     0.74200
O2287       O  0.55429828  0.32663262  0.00189270    -0.39300
O2288       O  0.52936568  0.28597026  0.03080466    -0.39200
O2289       O  0.86637600  0.21074449  0.96875124    -0.39900
O2290       O  0.88585775  0.25823470  0.94469841    -0.40000
C2291       C  0.67987110  0.26126755  0.02686562    -0.12200
C2292       C  0.65872165  0.22559123  0.01729580     0.04800
C2293       C  0.67326357  0.20199585  0.01829079    -0.07500
C2294       C  0.70875400  0.21493577  0.02707748    -0.08300
C2295       C  0.73086722  0.25126978  0.03511816    -0.02800
C2296       C  0.71545877  0.27416788  0.03585652     0.04000
N2297       N  0.73598200  0.31104471  0.04436939     0.66500
H2298       H  0.66907407  0.27983800  0.02677376     0.15400
H2299       H  0.71968756  0.19647859  0.02659118     0.15100
N2300       N  0.65395692  0.16591075  0.00833674     0.74200
O2301       O  0.75276709  0.33644243  0.02899355    -0.39300
O2302       O  0.72974142  0.31875599  0.06559909    -0.39200
O2303       O  0.66249495  0.16033524  0.98720540    -0.39900
O2304       O  0.63653792  0.13914958  0.02263536    -0.40000
O2305       O  0.52178434  0.73282444  0.99239379    -0.85300
O2306       O  0.54650463  0.69891395  0.02144329    -0.82400
C2307       C  0.52198043  0.66539117  0.01994716     0.98100
O2308       O  0.52059972  0.64649488  0.00153944    -0.82400
O2309       O  0.52035283  0.62888115  0.95245306    -0.85100
C2310       C  0.99003319  0.63114909  0.94423313     1.02700
O2311       O  0.99254789  0.66211543  0.94441105    -0.77800
O2312       O  0.51797544  0.73511419  0.95237978    -0.78000
C2313       C  0.50897808  0.73974577  0.97376461     1.02600
O2314       O  0.59284669  0.77925305  0.97099027    -0.85300
O2315       O  0.61848672  0.74246362  0.99798221    -0.82400
C2316       C  0.62443922  0.71763385  0.00505896     0.98200
O2317       O  0.59979275  0.68441598  0.00237853    -0.82400
O2318       O  0.59814402  0.67371363  0.95175707    -0.85000
C2319       C  0.59268173  0.67687341  0.92929246     1.02600
O2320       O  0.56739690  0.68316122  0.92284495    -0.77800
O2321       O  0.58935991  0.75285900  0.93553208    -0.78000
C2322       C  0.60245370  0.78105403  0.94870562     1.02600
Cr2323     Cr  0.56917452  0.73558054  0.99380508     1.93700
Cr2324     Cr  0.55959189  0.66162592  0.97673631     1.93200
Cr2325     Cr  0.54356634  0.70778406  0.94100726     1.39100
O2326       O  0.55763929  0.70194098  0.97047094    -1.23100
O2327       O  0.76522146  0.97891111  0.85182427    -0.85300
O2328       O  0.79748968  0.95295581  0.82188658    -0.82400
C2329       C  0.83136337  0.97666079  0.82208331     0.98100
O2330       O  0.85108013  0.97971247  0.84030581    -0.82400
O2331       O  0.87056783  0.98381234  0.88884251    -0.85100
C2332       C  0.86457552  0.51055895  0.89622025     1.02700
O2333       O  0.83698490  0.00807519  0.89768833    -0.77800
O2334       O  0.76364909  0.98307757  0.89187896    -0.78000
C2335       C  0.75923379  0.99223978  0.87060842     1.02600
O2336       O  0.72095046  0.90853700  0.87530183    -0.85300
O2337       O  0.75577829  0.88194825  0.84608798    -0.82400
C2338       C  0.78085817  0.87684425  0.83822560     0.98200
O2339       O  0.81397686  0.90133160  0.84139146    -0.82400
O2340       O  0.82651434  0.90562707  0.89183778    -0.85000
C2341       C  0.82511959  0.91253778  0.91427848     1.02600
O2342       O  0.82028916  0.93881169  0.92056022    -0.77800
O2343       O  0.74950762  0.91382460  0.91012748    -0.78000
C2344       C  0.72061210  0.89995843  0.89776009     1.02600
Cr2345     Cr  0.76253632  0.93142157  0.85063668     1.93700
Cr2346     Cr  0.83738200  0.94263579  0.86607968     1.93200
Cr2347     Cr  0.79310476  0.95991674  0.90261345     1.39100
O2348       O  0.79734578  0.94433830  0.87309142    -1.23100
O2349       O  0.76331795  0.78075621  0.32028144    -0.85300
O2350       O  0.79838961  0.84001875  0.34941575    -0.82400
C2351       C  0.83217056  0.84932965  0.34819037     0.98100
O2352       O  0.85143108  0.86723951  0.33006022    -0.82400
O2353       O  0.87054008  0.88527306  0.28180683    -0.85100
C2354       C  0.86967094  0.85621515  0.27491124     1.02700
O2355       O  0.83972257  0.82658596  0.27504756    -0.77800
O2356       O  0.76593596  0.77468257  0.28048430    -0.78000
C2357       C  0.75835952  0.76092111  0.30190206     1.02600
O2358       O  0.72043385  0.80855652  0.29609712    -0.85300
O2359       O  0.75582210  0.86917607  0.32474175    -0.82400
C2360       C  0.78049142  0.89883331  0.33330695     0.98200
O2361       O  0.81348556  0.90710378  0.33093403    -0.82400
O2362       O  0.82283777  0.91524119  0.27996794    -0.85000
C2363       C  0.82300380  0.90744352  0.25753826     1.02600
O2364       O  0.82038281  0.87703224  0.25139836    -0.77800
O2365       O  0.74974069  0.82823579  0.26106830    -0.78000
C2366       C  0.72088265  0.81625924  0.27337035     1.02600
Cr2367     Cr  0.76220974  0.82639898  0.32086207     1.93700
Cr2368     Cr  0.83646391  0.89057017  0.30525254     1.93200
Cr2369     Cr  0.79429766  0.82794680  0.26935302     1.39100
O2370       O  0.79719964  0.84796499  0.29850641    -1.23100
O2371       O  0.52044612  0.78786183  0.18058898    -0.85300
O2372       O  0.54755955  0.84766918  0.15261928    -0.82400
C2373       C  0.52180021  0.85485199  0.15493787     0.98100
O2374       O  0.52055938  0.87209760  0.17343891    -0.82400
O2375       O  0.52160078  0.88942007  0.22174985    -0.85100
C2376       C  0.99564351  0.85994398  0.22974830     1.02700
O2377       O  0.99627373  0.83050325  0.22935437    -0.77800
O2378       O  0.51676722  0.77937042  0.22027202    -0.78000
C2379       C  0.50840926  0.76681637  0.19861068     1.02600
O2380       O  0.59046045  0.80996969  0.20338000    -0.85300
O2381       O  0.61865178  0.87273066  0.17646099    -0.82400
C2382       C  0.62436431  0.90314455  0.16885212     0.98200
O2383       O  0.59981454  0.91180020  0.17156452    -0.82400
O2384       O  0.59926361  0.91985328  0.22247684    -0.85000
C2385       C  0.59155024  0.91123374  0.24482789     1.02600
O2386       O  0.56442137  0.88018894  0.25060736    -0.77800
O2387       O  0.58605340  0.83134163  0.23946953    -0.78000
C2388       C  0.59921767  0.81666484  0.22596677     1.02600
Cr2389     Cr  0.56865134  0.83122474  0.17999800     1.93700
Cr2390     Cr  0.56035548  0.89538429  0.19753622     1.93200
Cr2391     Cr  0.54129065  0.83186972  0.23230915     1.39100
O2392       O  0.55743700  0.85286453  0.20342784    -1.23100
O2393       O  0.78209980  0.54013660  0.14797883    -0.85300
O2394       O  0.82229890  0.52572251  0.18212573    -0.82400
C2395       C  0.84672288  0.51827472  0.18860016     0.98100
O2396       O  0.87818556  0.53464863  0.17876772    -0.82400
O2397       O  0.87205031  0.50181965  0.13394432    -0.85100
C2398       C  0.86137227  0.99322705  0.11052885     1.02700
O2399       O  0.85099846  0.01079798  0.09740741    -0.77800
O2400       O  0.78731212  0.50335392  0.12217808    -0.78000
C2401       C  0.76808742  0.50971356  0.13710574     1.02600
O2402       O  0.84269582  0.61333240  0.14110074    -0.85300
O2403       O  0.87750556  0.60055279  0.18041627    -0.82400
C2404       C  0.90978593  0.61820803  0.17269676     0.98200
O2405       O  0.91986557  0.60560433  0.15521725    -0.82400
O2406       O  0.91677634  0.57154610  0.11133923    -0.85000
C2407       C  0.90978228  0.58715283  0.09404581     1.02600
O2408       O  0.87875653  0.58483384  0.09257857    -0.77800
O2409       O  0.81418629  0.57859112  0.10963851    -0.78000
C2410       C  0.82973688  0.60973867  0.11956592     1.02600
Cr2411     Cr  0.83271188  0.56899452  0.16112470     1.93700
Cr2412     Cr  0.89358689  0.55368543  0.14449478     1.93200
Cr2413     Cr  0.83369979  0.54460784  0.10835044     1.39100
O2414       O  0.85346319  0.55546807  0.13802717    -1.23100
O2415       O  0.78434047  0.74661233  0.03016060    -0.85300
O2416       O  0.82588741  0.79908070  0.99574239    -0.82400
C2417       C  0.85128546  0.82953357  0.98793169     0.98100
O2418       O  0.88283956  0.84447559  0.99749415    -0.82400
O2419       O  0.87653339  0.87336602  0.04173721    -0.85100
C2420       C  0.86540984  0.87296440  0.06333015     1.02700
O2421       O  0.85472227  0.84517514  0.07665624    -0.77800
O2422       O  0.79087450  0.78999612  0.05519077    -0.78000
C2423       C  0.77105885  0.76411884  0.04061466     1.02600
O2424       O  0.84343869  0.73181505  0.03771308    -0.85300
O2425       O  0.87962680  0.77727190  0.99798031    -0.82400
C2426       C  0.91209326  0.79203727  0.00547650     0.98200
O2427       O  0.92243000  0.81498964  0.02273596    -0.82400
O2428       O  0.92035259  0.84730620  0.06552667    -0.85000
C2429       C  0.91316590  0.82399065  0.08241032     1.02600
O2430       O  0.88113324  0.79675167  0.08454124    -0.77800
O2431       O  0.81520075  0.73964560  0.06864911    -0.78000
C2432       C  0.83015545  0.72318321  0.05918276     1.02600
Cr2433     Cr  0.83485765  0.76609032  0.01702061     1.93700
Cr2434     Cr  0.89731977  0.84189671  0.03231643     1.93200
Cr2435     Cr  0.83676937  0.79349941  0.06901941     1.39100
O2436       O  0.85646138  0.80089562  0.03939548    -1.23100
O2437       O  0.75868141  0.71877207  0.80828854    -0.85300
O2438       O  0.70411376  0.67998698  0.84294796    -0.82400
C2439       C  0.67303662  0.65549796  0.85062969     0.98100
O2440       O  0.65718800  0.62331302  0.84154596    -0.82400
O2441       O  0.62468121  0.62063304  0.79680932    -0.85100
C2442       C  0.62619597  0.63691175  0.77704840     1.02700
O2443       O  0.65530796  0.65432851  0.76508454    -0.77800
O2444       O  0.71416789  0.71455227  0.78618236    -0.78000
C2445       C  0.74183410  0.73357906  0.79951753     1.02600
O2446       O  0.76688789  0.65672861  0.80092709    -0.85300
O2447       O  0.72423802  0.62492505  0.84273062    -0.82400
C2448       C  0.71068492  0.59241657  0.83560421     0.98200
O2449       O  0.68780235  0.58124749  0.81842701    -0.82400
O2450       O  0.65569675  0.58060797  0.77559746    -0.85000
C2451       C  0.67463933  0.59060474  0.75616073     1.02600
O2452       O  0.69842272  0.62370468  0.75235479    -0.77800
O2453       O  0.75922519  0.68470406  0.76946177    -0.78000
C2454       C  0.77463147  0.66878080  0.77909865     1.02600
Cr2455     Cr  0.73554434  0.66830457  0.82193457     1.93700
Cr2456     Cr  0.65971628  0.60502642  0.80768707     1.93200
Cr2457     Cr  0.70628394  0.66788845  0.77070406     1.39100
O2458       O  0.69977811  0.64671333  0.79992548    -1.23100
O2459       O  0.95608885  0.71478430  0.69406090    -0.85300
O2460       O  0.97039520  0.67456089  0.66023202    -0.82400
C2461       C  0.97711159  0.64995758  0.65312889     0.98100
O2462       O  0.96019641  0.61828930  0.66272801    -0.82400
O2463       O  0.99745158  0.62646199  0.70621950    -0.85100
C2464       C  0.50935424  0.63959529  0.72659103     1.02700
O2465       O  0.49230005  0.65010775  0.74015898    -0.77800
O2466       O  0.99483381  0.71144075  0.71896521    -0.78000
C2467       C  0.98685165  0.72989727  0.70451704     1.02600
O2468       O  0.88483133  0.65262041  0.70268566    -0.85300
O2469       O  0.89553227  0.61692493  0.66342267    -0.82400
C2470       C  0.87773001  0.58533661  0.67257886     0.98200
O2471       O  0.89177612  0.57645280  0.68969371    -0.82400
O2472       O  0.93038049  0.58190892  0.73132727    -0.85000
C2473       C  0.91423598  0.58867866  0.74833929     1.02600
O2474       O  0.91685458  0.61977873  0.75000783    -0.77800
O2475       O  0.92058490  0.68275882  0.73341284    -0.78000
C2476       C  0.88922807  0.66608199  0.72407841     1.02600
Cr2477     Cr  0.92776730  0.66332776  0.68170716     1.93700
Cr2478     Cr  0.94480544  0.60385357  0.69775203     1.93200
Cr2479     Cr  0.95558709  0.66486590  0.73362279     1.39100
O2480       O  0.94327230  0.64409055  0.70435979    -1.23100
O2481       O  0.95975772  0.73959932  0.47701561    -0.85300
O2482       O  0.97264555  0.79516245  0.50990464    -0.82400
C2483       C  0.97960530  0.82705654  0.51596197     0.98100
O2484       O  0.96302514  0.84174402  0.50583698    -0.82400
O2485       O  0.99519511  0.86896100  0.46167050    -0.85100
C2486       C  0.50742553  0.86499359  0.44291353     1.02700
O2487       O  0.49155573  0.83708886  0.42953261    -0.77800
O2488       O  0.99971388  0.78202833  0.45324594    -0.78000
C2489       C  0.99168304  0.75615609  0.46824701     1.02600
O2490       O  0.88780953  0.72863438  0.46787053    -0.85300
O2491       O  0.89780109  0.77462840  0.50757875    -0.82400
C2492       C  0.87924684  0.78810329  0.49955784     0.98200
O2493       O  0.89123892  0.80962523  0.48151471    -0.82400
O2494       O  0.92574542  0.83950750  0.43812919    -0.85000
C2495       C  0.91490199  0.81829585  0.41972956     1.02600
O2496       O  0.92218991  0.79270310  0.41757220    -0.77800
O2497       O  0.92448143  0.73389459  0.43753259    -0.78000
C2498       C  0.89292712  0.71878679  0.44694990     1.02600
Cr2499     Cr  0.93053598  0.76203424  0.48871876     1.93700
Cr2500     Cr  0.94378457  0.83661420  0.47140793     1.93200
Cr2501     Cr  0.95967567  0.78740329  0.43675239     1.39100
O2502       O  0.94497673  0.79596061  0.46547910    -1.23100
O2503       O  0.75759350  0.53569803  0.35984551    -0.85300
O2504       O  0.70180672  0.52224311  0.32811702    -0.82400
C2505       C  0.66959249  0.51423719  0.32258778     0.98100
O2506       O  0.65416532  0.52948113  0.33344348    -0.82400
O2507       O  0.63361818  0.49884591  0.37908590    -0.85100
C2508       C  0.63550016  0.98478472  0.40077885     1.02700
O2509       O  0.66394004  0.00294144  0.41338110    -0.77800
O2510       O  0.71873794  0.50052657  0.38794514    -0.78000
C2511       C  0.74287610  0.50613777  0.37187108     1.02600
O2512       O  0.77161266  0.60930629  0.36699553    -0.85300
O2513       O  0.72112660  0.59719742  0.33017044    -0.82400
C2514       C  0.70544147  0.61407824  0.33780860     0.98200
O2515       O  0.68372544  0.60150796  0.35573819    -0.82400
O2516       O  0.65904854  0.56960858  0.40059853    -0.85000
C2517       C  0.68387639  0.58814929  0.41607677     1.02600
O2518       O  0.71228125  0.58500475  0.41706118    -0.77800
O2519       O  0.76865859  0.57530435  0.39814339    -0.78000
C2520       C  0.78420978  0.60547256  0.38714541     1.02600
Cr2521     Cr  0.73569111  0.56531120  0.34814245     1.93700
Cr2522     Cr  0.66102354  0.55005359  0.36751209     1.93200
Cr2523     Cr  0.71512398  0.54296436  0.40175342     1.39100
O2524       O  0.70362942  0.55260781  0.37240240    -1.23100
O2525       O  0.70527134  0.97773385  0.65907453    -0.85300
O2526       O  0.64601990  0.95014526  0.68770831    -0.82400
C2527       C  0.63782557  0.97526942  0.68599911     0.98100
O2528       O  0.62094997  0.97690837  0.66737145    -0.82400
O2529       O  0.60549736  0.97795005  0.61853381    -0.85100
C2530       C  0.63521209  0.50644888  0.61091788     1.02700
O2531       O  0.66426674  0.00402839  0.61129863    -0.77800
O2532       O  0.71464004  0.98089495  0.61955109    -0.78000
C2533       C  0.72686905  0.99017605  0.64128699     1.02600
O2534       O  0.68315338  0.90723485  0.63590020    -0.85300
O2535       O  0.62036459  0.87965333  0.66305265    -0.82400
C2536       C  0.59002012  0.87408175  0.67073255     0.98200
O2537       O  0.58133060  0.89856353  0.66812749    -0.82400
O2538       O  0.57409986  0.89936190  0.61748154    -0.85000
C2539       C  0.58291747  0.90650402  0.59515035     1.02600
O2540       O  0.61340762  0.93424316  0.58928476    -0.77800
O2541       O  0.65927168  0.91096330  0.60102135    -0.78000
C2542       C  0.67483710  0.89800671  0.61349221     1.02600
Cr2543     Cr  0.66213617  0.92938147  0.65972096     1.93700
Cr2544     Cr  0.59831721  0.93830053  0.64254603     1.93200
Cr2545     Cr  0.66160901  0.95674881  0.60756779     1.39100
O2546       O  0.64078756  0.94135955  0.63664032    -1.23100
O2547       O  0.72018602  0.75938605  0.53154075    -0.85300
O2548       O  0.68267772  0.70854013  0.49530351    -0.82400
C2549       C  0.65906357  0.67749577  0.48709759     0.98100
O2550       O  0.62658921  0.66157021  0.49545431    -0.82400
O2551       O  0.62805720  0.62862992  0.53874776    -0.85100
C2552       C  0.63977070  0.62828373  0.55996278     1.02700
O2553       O  0.65159742  0.65589902  0.57370145    -0.77800
O2554       O  0.71533584  0.71464001  0.55398890    -0.78000
C2555       C  0.73452024  0.74184151  0.54016416     1.02600
O2556       O  0.66075695  0.77167172  0.53909779    -0.85300
O2557       O  0.62626285  0.72828146  0.49719631    -0.82400
C2558       C  0.59299995  0.71140975  0.50340260     0.98200
O2559       O  0.58265052  0.68771005  0.52012461    -0.82400
O2560       O  0.58357578  0.65344656  0.56250963    -0.85000
C2561       C  0.59050989  0.67489268  0.58061775     1.02600
O2562       O  0.62242760  0.70183144  0.58388054    -0.77800
O2563       O  0.68742056  0.76160976  0.57024024    -0.78000
C2564       C  0.67451970  0.77984457  0.56055430     1.02600
Cr2565     Cr  0.67055738  0.73907835  0.51728246     1.93700
Cr2566     Cr  0.60855826  0.66130750  0.52977300     1.93200
Cr2567     Cr  0.66789426  0.70795763  0.56811359     1.39100
O2568       O  0.64868418  0.70240601  0.53843191    -1.23100
C2569       C  0.66617386  0.60199521  0.58779555    -0.12200
C2570       C  0.63936975  0.59574136  0.57028632     0.04800
C2571       C  0.61070394  0.55957507  0.56629334    -0.07500
C2572       C  0.60885063  0.53090330  0.58049900    -0.08300
C2573       C  0.63545704  0.53758375  0.59839420    -0.02800
C2574       C  0.66444044  0.57361959  0.60179981     0.04000
N2575       N  0.69190620  0.58229877  0.61996085     0.66500
H2576       H  0.68845230  0.62961114  0.59119654     0.15400
H2577       H  0.58686592  0.50313221  0.57717166     0.15100
N2578       N  0.58286172  0.55157114  0.54850427     0.74200
O2579       O  0.72356243  0.59063489  0.61295705    -0.39300
O2580       O  0.68793653  0.59272721  0.64090120    -0.39200
O2581       O  0.58470122  0.53906741  0.52779301    -0.39900
O2582       O  0.55295474  0.54857212  0.55535804    -0.40000
C2583       C  0.67720696  0.84056951  0.61347816    -0.12200
C2584       C  0.68195982  0.87131271  0.60085787     0.04800
C2585       C  0.68667181  0.87305615  0.57498063    -0.07500
C2586       C  0.68311898  0.84272281  0.56206043    -0.08300
C2587       C  0.67722536  0.81127772  0.57460110    -0.02800
C2588       C  0.67543169  0.81090393  0.60074596     0.04000
N2589       N  0.67056218  0.78020887  0.61479799     0.66500
H2590       H  0.67336093  0.83887038  0.63326479     0.15400
H2591       H  0.68599912  0.84415661  0.54221697     0.15100
N2592       N  0.69513329  0.90565433  0.56167904     0.74200
O2593       O  0.69851854  0.77933058  0.62188737    -0.39300
O2594       O  0.64086526  0.76126307  0.62615062    -0.39200
O2595       O  0.72294969  0.93569261  0.56738941    -0.39900
O2596       O  0.67275292  0.90524159  0.54616665    -0.40000
C2597       C  0.64090501  0.63680378  0.45058193    -0.12200
C2598       C  0.66830235  0.65885107  0.46731923     0.04800
C2599       C  0.70177678  0.65881975  0.46640466    -0.07500
C2600       C  0.70649713  0.63606301  0.44956019    -0.08300
C2601       C  0.67850109  0.61300431  0.43328098    -0.02800
C2602       C  0.64546737  0.61425605  0.43376378     0.04000
N2603       N  0.61541947  0.59194100  0.41796123     0.66500
H2604       H  0.61495409  0.63632252  0.45090998     0.15400
H2605       H  0.73219261  0.63604739  0.44957982     0.15100
N2606       N  0.73017566  0.67932488  0.48369632     0.74200
O2607       O  0.59028521  0.56153510  0.42577164    -0.39300
O2608       O  0.60934637  0.60634959  0.39959975    -0.39200
O2609       O  0.73668953  0.66245681  0.50022211    -0.39900
O2610       O  0.75398212  0.71188040  0.47871974    -0.40000
C2611       C  0.00746966  0.82960425  0.55694897    -0.12200
C2612       C  0.00696218  0.84757278  0.53543046     0.04800
C2613       C  0.52980306  0.88384078  0.53585791    -0.07500
C2614       C  0.55472081  0.90263970  0.55467925    -0.08300
C2615       C  0.55664669  0.88447182  0.57559624    -0.02800
C2616       C  0.53347002  0.84612262  0.57722233     0.04000
N2617       N  0.53558313  0.82602507  0.59764337     0.66500
H2618       H  0.98794808  0.80061743  0.55920712     0.15400
H2619       H  0.57249776  0.93208856  0.55301397     0.15100
N2620       N  0.53006819  0.90407561  0.51478321     0.74200
O2621       O  0.00737827  0.82244375  0.61384551    -0.39300
O2622       O  0.55489988  0.81104709  0.59588027    -0.39200
O2623       O  0.51236568  0.92083263  0.51546604    -0.39900
O2624       O  0.55573271  0.91405235  0.49945697    -0.40000
C2625       C  0.57345656  0.90820285  0.44412061    -0.12200
C2626       C  0.53970158  0.89659132  0.43301848     0.04800
C2627       C  0.53765890  0.91284711  0.41098570    -0.07500
C2628       C  0.56931891  0.94108179  0.40070759    -0.08300
C2629       C  0.60339546  0.95328311  0.41180030    -0.02800
C2630       C  0.60535466  0.93647129  0.43383490     0.04000
N2631       N  0.63934185  0.94688842  0.44566009     0.66500
H2632       H  0.57524405  0.89434680  0.46045606     0.15400
H2633       H  0.56696212  0.95381175  0.38396686     0.15100
N2634       N  0.50369123  0.90063434  0.39863357     0.74200
O2635       O  0.64888615  0.96825019  0.46388316    -0.39300
O2636       O  0.65434414  0.92785579  0.44221006    -0.39200
O2637       O  0.48697319  0.91814747  0.40144937    -0.39900
O2638       O  0.49604495  0.87954747  0.38041070    -0.40000
C2639       C  0.81221954  0.66706640  0.40469544    -0.12200
C2640       C  0.81486544  0.63604392  0.39970085     0.04800
C2641       C  0.84241793  0.63179788  0.41121641    -0.07500
C2642       C  0.86660947  0.65849014  0.42750276    -0.08300
C2643       C  0.86324792  0.68898000  0.43312998    -0.02800
C2644       C  0.83593833  0.69339393  0.42141636     0.04000
N2645       N  0.83274233  0.72505416  0.42533920     0.66500
H2646       H  0.79060033  0.67016977  0.39635426     0.15400
H2647       H  0.88850150  0.65561375  0.43560754     0.15100
N2648       N  0.84723050  0.60138682  0.40579802     0.74200
O2649       O  0.84010880  0.74698388  0.40769945    -0.39300
O2650       O  0.81178403  0.72433788  0.44213161    -0.39200
O2651       O  0.87312337  0.60633304  0.39178220    -0.39900
O2652       O  0.83350925  0.57414020  0.42002972    -0.40000
C2653       C  0.00457282  0.71267430  0.49137853    -0.12200
C2654       C  0.51738800  0.74216477  0.47222673     0.04800
C2655       C  0.55480928  0.76124279  0.46560772    -0.07500
C2656       C  0.57884706  0.75045716  0.47547820    -0.08300
C2657       C  0.56632303  0.71998800  0.49124780    -0.02800
C2658       C  0.52829495  0.69880454  0.49557154     0.04000
N2659       N  0.51274728  0.66518465  0.50891898     0.66500
H2660       H  0.97571177  0.69725251  0.49601169     0.15400
H2661       H  0.60769855  0.76641942  0.47090664     0.15100
N2662       N  0.56887658  0.79112589  0.44872115     0.74200
O2663       O  0.00636709  0.67338516  0.53954826    -0.39300
O2664       O  0.49920359  0.63542176  0.49718164    -0.39200
O2665       O  0.58845152  0.82333110  0.45663260    -0.39900
O2666       O  0.56956934  0.78479474  0.42609473    -0.40000
C2667       C  0.79064479  0.78559667  0.51741428    -0.12200
C2668       C  0.77332345  0.75461753  0.53282471     0.04800
C2669       C  0.79266669  0.73633076  0.53860495    -0.07500
C2670       C  0.82720475  0.74800944  0.52788468    -0.08300
C2671       C  0.84350586  0.77801585  0.51153823    -0.02800
C2672       C  0.82488333  0.79725696  0.50686386     0.04000
N2673       N  0.84000916  0.82870807  0.49131174     0.66500
H2674       H  0.77717677  0.80098688  0.51284025     0.15400
H2675       H  0.84117755  0.73302758  0.53223360     0.15100
N2676       N  0.77817418  0.70635627  0.55544544     0.74200
O2677       O  0.82857824  0.82534079  0.46951714    -0.39300
O2678       O  0.85661377  0.86012255  0.50092487    -0.39200
O2679       O  0.76583889  0.67428100  0.54736721    -0.39900
O2680       O  0.78632837  0.71264995  0.57791826    -0.40000
C2681       C  0.00757561  0.62716957  0.62483060    -0.12200
C2682       C  0.00487496  0.65702905  0.63366328     0.04800
C2683       C  0.53336569  0.69316395  0.62650395    -0.07500
C2684       C  0.56019955  0.69809372  0.60920195    -0.08300
C2685       C  0.56065929  0.66825050  0.59817887    -0.02800
C2686       C  0.53227486  0.63262234  0.60402262     0.04000
N2687       N  0.53169995  0.60099442  0.59408518     0.66500
H2688       H  0.98834865  0.59956236  0.63097509     0.15400
H2689       H  0.58107080  0.72574669  0.60438040     0.15100
N2690       N  0.53696278  0.72457706  0.63897379     0.74200
O2691       O  0.04691359  0.58503754  0.61748275    -0.39300
O2692       O  0.50921355  0.58304721  0.57728237    -0.39200
O2693       O  0.55859527  0.73743125  0.65696006    -0.39900
O2694       O  0.52619250  0.74416998  0.62857075    -0.40000
C2695       C  0.55031252  0.78076301  0.70121435    -0.12200
C2696       C  0.51287162  0.76836316  0.69980594     0.04800
C2697       C  0.50128018  0.79264840  0.69141912    -0.07500
C2698       C  0.52701669  0.82741800  0.68296450    -0.08300
C2699       C  0.56436478  0.83880298  0.68258035    -0.02800
C2700       C  0.57606225  0.81546742  0.69265892     0.04000
N2701       N  0.61389654  0.82642880  0.69440332     0.66500
H2702       H  0.55976547  0.76268176  0.70796872     0.15400
H2703       H  0.51742413  0.84520202  0.67586307     0.15100
N2704       N  0.96458044  0.78347151  0.68987139     0.74200
O2705       O  0.63051596  0.83974374  0.71435763    -0.39300
O2706       O  0.62761214  0.81452418  0.67885590    -0.39200
O2707       O  0.95273548  0.79460415  0.70720271    -0.39900
O2708       O  0.94648573  0.77262650  0.67017316    -0.40000
C2709       C  0.82905033  0.56600101  0.64037981    -0.12200
C2710       C  0.84042524  0.55933682  0.66318175     0.04800
C2711       C  0.81497814  0.52916214  0.67720413    -0.07500
C2712       C  0.77657597  0.01371964  0.67216527    -0.08300
C2713       C  0.76758980  0.51412965  0.64608489    -0.02800
C2714       C  0.79316573  0.54372681  0.63166822     0.04000
N2715       N  0.78304761  0.55296660  0.60891860     0.66500
H2716       H  0.84807442  0.58912979  0.62925747     0.15400
H2717       H  0.75623215  0.99720762  0.68587097     0.15100
N2718       N  0.82001483  0.03499294  0.70580148     0.74200
O2719       O  0.78176140  0.58211682  0.60772337    -0.39300
O2720       O  0.78694048  0.53928381  0.58930563    -0.39200
O2721       O  0.81321763  0.05429590  0.72021227    -0.39900
O2722       O  0.82416643  0.00962695  0.71450901    -0.40000
C2723       C  0.66743861  0.53014775  0.74493854    -0.12200
C2724       C  0.66820717  0.56242232  0.73759209     0.04800
C2725       C  0.66080444  0.56624868  0.71291112    -0.07500
C2726       C  0.65189325  0.53768317  0.69634141    -0.08300
C2727       C  0.64874036  0.00423722  0.70502362    -0.02800
C2728       C  0.65595264  0.00008096  0.72982493     0.04000
N2729       N  0.65281935  0.96676609  0.73860563     0.66500
H2730       H  0.67332043  0.52701468  0.76394661     0.15400
H2731       H  0.64568195  0.54122979  0.67751088     0.15100
N2732       N  0.65966976  0.59783135  0.70471520     0.74200
O2733       O  0.68129380  0.96436333  0.74052718    -0.39300
O2734       O  0.62449192  0.94458325  0.75030350    -0.39200
O2735       O  0.68523601  0.62110944  0.69144780    -0.39900
O2736       O  0.62971870  0.59760053  0.70532005    -0.40000
C2737       C  0.59568861  0.66961718  0.76251727    -0.12200
C2738       C  0.59393455  0.63608996  0.76662632     0.04800
C2739       C  0.56542351  0.60397422  0.75597033    -0.07500
C2740       C  0.53943569  0.60610535  0.74122454    -0.08300
C2741       C  0.54105682  0.63967193  0.73738055    -0.02800
C2742       C  0.56918077  0.67157180  0.74844890     0.04000
N2743       N  0.57135840  0.70620415  0.74536187     0.66500
H2744       H  0.61816196  0.69461389  0.77009508     0.15400
H2745       H  0.51704788  0.58118723  0.73351410     0.15100
N2746       N  0.56280681  0.56923310  0.75961456     0.74200
O2747       O  0.55912754  0.71797573  0.76205068    -0.39300
O2748       O  0.59298102  0.72822187  0.72951682    -0.39200
O2749       O  0.54115081  0.54790547  0.77573124    -0.39900
O2750       O  0.57443241  0.55654708  0.74314082    -0.40000
C2751       C  0.82946097  0.66297192  0.72583895    -0.12200
C2752       C  0.85870853  0.66393516  0.73830723     0.04800
C2753       C  0.85891568  0.66408765  0.76439426    -0.07500
C2754       C  0.83075172  0.66472722  0.77726367    -0.08300
C2755       C  0.80250628  0.66578074  0.76478735    -0.02800
C2756       C  0.80160358  0.66423214  0.73873039     0.04000
N2757       N  0.77216531  0.66271979  0.72494683     0.66500
H2758       H  0.82866710  0.66229383  0.70587295     0.15400
H2759       H  0.83162506  0.66546388  0.79722082     0.15100
N2760       N  0.88727481  0.66341881  0.77826211     0.74200
O2761       O  0.77517487  0.69207926  0.71680785    -0.39300
O2762       O  0.74971765  0.63287540  0.71487474    -0.39200
O2763       O  0.91358088  0.69325241  0.78587312    -0.39900
O2764       O  0.88053817  0.63414039  0.78886822    -0.40000
C2765       C  0.86317402  0.96072764  0.07308214    -0.12200
C2766       C  0.86317850  0.96253949  0.09897813     0.04800
C2767       C  0.86521901  0.93541802  0.11270667    -0.07500
C2768       C  0.86652926  0.90710698  0.10046033    -0.08300
C2769       C  0.86598071  0.90499244  0.07459520    -0.02800
C2770       C  0.86479256  0.93251210  0.06082505     0.04000
N2771       N  0.86394539  0.93168044  0.03455481     0.66500
H2772       H  0.86189036  0.98149970  0.06205312     0.15400
H2773       H  0.86781644  0.88634314  0.11150914     0.15100
N2774       N  0.86481785  0.93537989  0.13898532     0.74200
O2775       O  0.83360413  0.91820493  0.02362846    -0.39300
O2776       O  0.89295893  0.95155652  0.02270779    -0.39200
O2777       O  0.83503424  0.91584748  0.15013412    -0.39900
O2778       O  0.89450336  0.94703148  0.15050377    -0.40000
C2779       C  0.83354152  0.63846972  0.07892087    -0.12200
C2780       C  0.83241699  0.64067886  0.10482524     0.04800
C2781       C  0.83255720  0.67125841  0.11528682    -0.07500
C2782       C  0.83227991  0.69779950  0.09997352    -0.08300
C2783       C  0.83208755  0.69484752  0.07414287    -0.02800
C2784       C  0.83347840  0.66515896  0.06364061     0.04000
N2785       N  0.83308088  0.66080166  0.03755774     0.66500
H2786       H  0.83395889  0.61547665  0.07036796     0.13000
H2787       H  0.83187001  0.72085021  0.10846870     0.15100
N2788       N  0.83123841  0.67511149  0.14128431     0.74200
O2789       O  0.86280419  0.67276484  0.02599394    -0.39300
O2790       O  0.80363114  0.64955386  0.02581078    -0.39200
O2791       O  0.85961320  0.69863366  0.15229887    -0.39900
O2792       O  0.80057878  0.66285101  0.15165170    -0.40000
C2793       C  0.93205420  0.81241556  0.12351209    -0.12200
C2794       C  0.94227940  0.82956873  0.10043006     0.04800
C2795       C  0.98017748  0.85229174  0.09541167    -0.07500
C2796       C  0.50309201  0.85026903  0.11116046    -0.08300
C2797       C  0.49315736  0.84385009  0.13592353    -0.02800
C2798       C  0.95822885  0.81870290  0.14159706     0.04000
N2799       N  0.94617975  0.80155720  0.16505205     0.66500
H2800       H  0.90333088  0.79474643  0.12792175     0.15400
H2801       H  0.53165713  0.86215386  0.10597143     0.15100
N2802       N  0.99286049  0.87032382  0.07230915     0.74200
O2803       O  0.93515227  0.81573562  0.18087232    -0.39300
O2804       O  0.93853438  0.76879076  0.16769262    -0.39200
O2805       O  0.00078406  0.90326794  0.07037326    -0.39900
O2806       O  0.49864635  0.82996171  0.05766121    -0.40000
C2807       C  0.94941229  0.70874947  0.20744589    -0.12200
C2808       C  0.98547459  0.72589593  0.19913312     0.04800
C2809       C  0.49251342  0.71202347  0.17232850    -0.07500
C2810       C  0.97259327  0.67071320  0.17712435    -0.08300
C2811       C  0.93570296  0.65398877  0.18392441    -0.02800
C2812       C  0.92434751  0.67302353  0.20000474     0.04000
N2813       N  0.88729928  0.65747735  0.20800351     0.66500
H2814       H  0.94013867  0.72385274  0.21866551     0.15400
H2815       H  0.47421222  0.66510152  0.14938412     0.15100
N2816       N  0.52310000  0.73316741  0.15657950     0.74200
O2817       O  0.87842018  0.64266028  0.22891649    -0.39300
O2818       O  0.86658159  0.66662922  0.19737285    -0.39200
O2819       O  0.55127661  0.73027062  0.15865045    -0.39900
O2820       O  0.51851373  0.74677095  0.13719405    -0.40000
C2821       C  0.71893473  0.94465625  0.13888850    -0.12200
C2822       C  0.72950124  0.98185020  0.13876152     0.04800
C2823       C  0.70470547  0.49225397  0.15248377    -0.07500
C2824       C  0.66976481  0.96595320  0.15543248    -0.08300
C2825       C  0.65978527  0.92899985  0.15693229    -0.02800
C2826       C  0.68448668  0.91821791  0.14780479     0.04000
N2827       N  0.67512605  0.88068070  0.14720036     0.66500
H2828       H  0.73804227  0.93610080  0.13286779     0.15400
H2829       H  0.65177208  0.47413220  0.16801391     0.15100
N2830       N  0.71455647  0.52975067  0.15529887     0.74200
O2831       O  0.66095688  0.86221807  0.12796615    -0.39300
O2832       O  0.68929940  0.86925856  0.16267825    -0.39200
O2833       O  0.70296499  0.54389984  0.13992610    -0.39900
O2834       O  0.72619673  0.54515576  0.17584991    -0.40000
C2835       C  0.66672579  0.99067331  0.28133743    -0.12200
C2836       C  0.64862619  0.98775875  0.30355776     0.04800
C2837       C  0.61196682  0.95964779  0.30626661    -0.07500
C2838       C  0.59432619  0.93511203  0.28698343    -0.08300
C2839       C  0.61214818  0.93808542  0.26457877    -0.02800
C2840       C  0.64878893  0.96658812  0.26177111     0.04000
N2841       N  0.66854234  0.97100375  0.23951139     0.66500
H2842       H  0.69823986  0.50321441  0.28110739     0.15400
H2843       H  0.56615137  0.91353018  0.28961379     0.15100
N2844       N  0.59279944  0.95433883  0.32891515     0.74200
O2845       O  0.67154833  0.99464958  0.22408187    -0.39300
O2846       O  0.68999233  0.95841771  0.23822540    -0.39200
O2847       O  0.57222957  0.47795919  0.32396865    -0.39900
O2848       O  0.59155840  0.93109487  0.34402455    -0.40000
C2849       C  0.87551154  0.82833254  0.35905273    -0.12200
C2850       C  0.85032912  0.83866768  0.36720182     0.04800
C2851       C  0.84562740  0.84068725  0.39270792    -0.07500
C2852       C  0.86693431  0.83375908  0.40924824    -0.08300
C2853       C  0.89244640  0.82388839  0.40107742    -0.02800
C2854       C  0.89622177  0.82067968  0.37556876     0.04000
N2855       N  0.92207115  0.81145729  0.36596116     0.66500
H2856       H  0.87948854  0.82650470  0.33947748     0.15400
H2857       H  0.86368837  0.83639262  0.42879476     0.15100
N2858       N  0.82117461  0.85182541  0.40218350     0.74200
O2859       O  0.91118782  0.77872840  0.35994126    -0.39300
O2860       O  0.95167291  0.83645835  0.35706429    -0.39200
O2861       O  0.79092407  0.82796348  0.41104434    -0.39900
O2862       O  0.83358423  0.88497590  0.40781338    -0.40000
C2863       C  0.86244400  0.97635210  0.20533194    -0.12200
C2864       C  0.83813664  0.99002099  0.20423114     0.04800
C2865       C  0.81924728  0.48471917  0.22902525    -0.07500
C2866       C  0.80351008  0.94827609  0.23771856    -0.08300
C2867       C  0.82784403  0.93475309  0.23855543    -0.02800
C2868       C  0.85730950  0.94879160  0.22189609     0.04000
N2869       N  0.88348575  0.93682326  0.22235391     0.66500
H2870       H  0.88573060  0.98687796  0.19300666     0.15400
H2871       H  0.78054147  0.93754123  0.25033909     0.15100
N2872       N  0.80463738  0.50793601  0.23453906     0.74200
O2873       O  0.87878682  0.91068408  0.20863888    -0.39300
O2874       O  0.91487226  0.95794017  0.23098812    -0.39200
O2875       O  0.77102114  0.49617800  0.23124167    -0.39900
O2876       O  0.82282076  0.53576861  0.24786900    -0.40000
C2877       C  0.93617756  0.82774821  0.25106351    -0.12200
C2878       C  0.96369524  0.86022664  0.24067593     0.04800
C2879       C  0.96080294  0.89209059  0.24246476    -0.07500
C2880       C  0.93089678  0.89061691  0.25473846    -0.08300
C2881       C  0.90292743  0.85770674  0.26464164    -0.02800
C2882       C  0.90624683  0.82620907  0.26284994     0.04000
N2883       N  0.87948150  0.79210126  0.27283009     0.66500
H2884       H  0.93777583  0.80279366  0.25025366     0.15400
H2885       H  0.92905918  0.91544277  0.25592786     0.15100
N2886       N  0.98740689  0.92576098  0.23151479     0.74200
O2887       O  0.85869999  0.76728179  0.25809274    -0.39300
O2888       O  0.88447745  0.78350016  0.29409685    -0.39200
O2889       O  0.48098811  0.92600508  0.20558205    -0.39900
O2890       O  0.01365167  0.94931354  0.24421240    -0.40000
C2891       C  0.65905603  0.82067332  0.22391765    -0.12200
C2892       C  0.62673263  0.80926092  0.23679714     0.04800
C2893       C  0.62380965  0.79689978  0.26125597    -0.07500
C2894       C  0.65429605  0.79856225  0.27293876    -0.08300
C2895       C  0.68775223  0.81194536  0.26038327    -0.02800
C2896       C  0.68940142  0.82237488  0.23526070     0.04000
N2897       N  0.72213880  0.83664676  0.22102610     0.66500
H2898       H  0.66160326  0.83057497  0.20521532     0.15400
H2899       H  0.65183158  0.78968376  0.29187823     0.15100
N2900       N  0.58982935  0.78220036  0.27418556     0.74200
O2901       O  0.72593577  0.81577687  0.20619625    -0.39300
O2902       O  0.74168375  0.87082266  0.21841164    -0.39200
O2903       O  0.56233694  0.75326733  0.26655295    -0.39900
O2904       O  0.58594435  0.80060916  0.29099718    -0.40000
C2905       C  0.74177786  0.66382223  0.30771330    -0.12200
C2906       C  0.71413126  0.64927534  0.32570751     0.04800
C2907       C  0.69798442  0.67021798  0.33276601    -0.07500
C2908       C  0.71149438  0.70552904  0.32326376    -0.08300
C2909       C  0.74091556  0.72097141  0.30662156    -0.02800
C2910       C  0.75529269  0.69917756  0.29828143     0.04000
N2911       N  0.78675943  0.71378351  0.28296344     0.66500
H2912       H  0.75475134  0.64847690  0.30177262     0.15400
H2913       H  0.69966229  0.72169917  0.32974825     0.15100
N2914       N  0.66856942  0.65671820  0.35000230     0.74200
O2915       O  0.81640710  0.71985757  0.29258855    -0.39300
O2916       O  0.78244267  0.70821929  0.26009325    -0.39200
O2917       O  0.67512761  0.66746271  0.37203893    -0.39900
O2918       O  0.63620246  0.64208225  0.34211309    -0.40000
C2919       C  0.79701098  0.96153992  0.34616746    -0.12200
C2920       C  0.77103764  0.92429397  0.34582659     0.04800
C2921       C  0.73633598  0.91259682  0.35649968    -0.07500
C2922       C  0.72774000  0.93848753  0.36591090    -0.08300
C2923       C  0.75332052  0.97612283  0.36497846    -0.02800
C2924       C  0.78904214  0.48990786  0.35504993     0.04000
N2925       N  0.81579009  0.52753801  0.35175909     0.66500
H2926       H  0.82396405  0.97108129  0.33850290     0.15400
H2927       H  0.70069664  0.92919633  0.37328176     0.15100
N2928       N  0.70966498  0.87457465  0.35804839     0.74200
O2929       O  0.84258428  0.54186011  0.36629337    -0.39300
O2930       O  0.81869549  0.54203511  0.33098357    -0.39200
O2931       O  0.71460167  0.85408900  0.37250466    -0.39900
O2932       O  0.68334478  0.86073688  0.34308132    -0.40000
C2933       C  0.85720170  0.55291623  0.77287786    -0.12200
C2934       C  0.89216551  0.55959565  0.76636141     0.04800
C2935       C  0.90513186  0.53761900  0.77672993    -0.07500
C2936       C  0.88364872  0.51044745  0.79376685    -0.08300
C2937       C  0.84929436  0.00081393  0.80077325    -0.02800
C2938       C  0.83548760  0.52540040  0.78982117     0.04000
N2939       N  0.80115887  0.52136114  0.79705201     0.66500
H2940       H  0.84667035  0.56931525  0.76480595     0.15400
H2941       H  0.89314968  0.98856725  0.80066454     0.15100
N2942       N  0.94092067  0.54392163  0.77127527     0.74200
O2943       O  0.80047894  0.54210890  0.81351418    -0.39300
O2944       O  0.77463801  0.00211560  0.78462281    -0.39200
O2945       O  0.96696478  0.56354980  0.78559599    -0.39900
O2946       O  0.94462339  0.52349836  0.75598435    -0.40000
C2947       C  0.76617130  0.55530243  0.86721293    -0.12200
C2948       C  0.74212201  0.51766311  0.86549098     0.04800
C2949       C  0.70924098  0.00345992  0.85805694    -0.07500
C2950       C  0.69697779  0.52935185  0.84648691    -0.08300
C2951       C  0.72138350  0.56731540  0.84733760    -0.02800
C2952       C  0.75613472  0.58022621  0.85837071     0.04000
N2953       N  0.78272151  0.61829652  0.85901249     0.66500
H2954       H  0.79361039  0.56537112  0.87417064     0.15400
H2955       H  0.67094102  0.01630418  0.84135701     0.15100
N2956       N  0.68406271  0.96493076  0.85824236     0.74200
O2957       O  0.78762392  0.63582053  0.87878947    -0.39300
O2958       O  0.80707283  0.63138493  0.84258590    -0.39200
O2959       O  0.67126157  0.94897200  0.87847457    -0.39900
O2960       O  0.68116468  0.94612541  0.83943379    -0.40000
C2961       C  0.72923573  0.78498205  0.80448307    -0.12200
C2962       C  0.75406423  0.77230877  0.80609117     0.04800
C2963       C  0.78917663  0.79603308  0.81611875    -0.07500
C2964       C  0.79741848  0.83011555  0.82575955    -0.08300
C2965       C  0.77177280  0.84193212  0.82548619    -0.02800
C2966       C  0.73772800  0.81942472  0.81371733     0.04000
N2967       N  0.71203033  0.83154343  0.80989960     0.66500
H2968       H  0.70247218  0.76764940  0.79627707     0.15400
H2969       H  0.82413891  0.84721649  0.83408596     0.15100
N2970       N  0.81707917  0.78631469  0.81644808     0.74200
O2971       O  0.71911284  0.85591955  0.79398758    -0.39300
O2972       O  0.67927419  0.81118160  0.81646117    -0.39200
O2973       O  0.84144047  0.79891440  0.80000997    -0.39900
O2974       O  0.82273188  0.77376669  0.83595448    -0.40000
C2975       C  0.86123181  0.88555390  0.93069011    -0.12200
C2976       C  0.83124441  0.89098076  0.93318282     0.04800
C2977       C  0.80741451  0.87502539  0.95336947    -0.07500
C2978       C  0.81362134  0.85369020  0.97024544    -0.08300
C2979       C  0.84401635  0.84896757  0.96809748    -0.02800
C2980       C  0.86819678  0.86537371  0.94812618     0.04000
N2981       N  0.89927634  0.86090294  0.94487268     0.66500
H2982       H  0.87981329  0.89760786  0.91520766     0.15400
H2983       H  0.79489487  0.84138361  0.98564993     0.15100
N2984       N  0.77610799  0.87908945  0.95654838     0.74200
O2985       O  0.89687825  0.83613640  0.93067580    -0.39300
O2986       O  0.93046873  0.88655565  0.95097371    -0.39200
O2987       O  0.74523571  0.85328724  0.95005973    -0.39900
O2988       O  0.77777300  0.90290599  0.97136765    -0.40000
C2989       C  0.98606499  0.61303892  0.04724720    -0.12200
C2990       C  0.99448246  0.64833600  0.04027829     0.04800
C2991       C  0.97456505  0.66347925  0.05116924    -0.07500
C2992       C  0.94655439  0.64293537  0.06821978    -0.08300
C2993       C  0.93847384  0.60770587  0.07525414    -0.02800
C2994       C  0.95890252  0.59297064  0.06467630     0.04000
N2995       N  0.95104735  0.55672096  0.07024082     0.66500
H2996       H  0.00058816  0.60062953  0.03886307     0.15400
H2997       H  0.93135480  0.65484069  0.07627872     0.15100
N2998       N  0.48039052  0.69665464  0.04376216     0.74200
O2999       O  0.93246214  0.53149331  0.05510806    -0.39300
O3000       O  0.97103399  0.55234041  0.08545803    -0.39200
O3001       O  0.45905415  0.69892369  0.02858544    -0.39900
O3002       O  0.49949834  0.72345555  0.05769750    -0.40000
C3003       C  0.62942187  0.69769552  0.89065499    -0.12200
C3004       C  0.61527071  0.67246468  0.91009203     0.04800
C3005       C  0.62177243  0.64271605  0.91014158    -0.07500
C3006       C  0.64094569  0.63820027  0.89070081    -0.08300
C3007       C  0.65503066  0.66328352  0.87130814    -0.02800
C3008       C  0.64957558  0.69368887  0.87152359     0.04000
N3009       N  0.66267719  0.71970525  0.85194281     0.66500
H3010       H  0.62465853  0.72073901  0.89026452     0.15400
H3011       H  0.64485226  0.61460900  0.89076520     0.15100
N3012       N  0.60765460  0.61572402  0.92907739     0.74200
O3013       O  0.64197394  0.71505848  0.83394292    -0.39300
O3014       O  0.69013166  0.75091826  0.85559197    -0.39200
O3015       O  0.58220694  0.58400033  0.92386766    -0.39900
O3016       O  0.62752403  0.61980988  0.94743003    -0.40000
C3017       C  0.92996940  0.60513141  0.92257053    -0.12200
C3018       C  0.95745821  0.59958272  0.93269710     0.04800
C3019       C  0.95400841  0.56463503  0.93008069    -0.07500
C3020       C  0.92418605  0.53682905  0.91750351    -0.08300
C3021       C  0.89675627  0.54232939  0.90755196    -0.02800
C3022       C  0.89986848  0.57708549  0.91018269     0.04000
N3023       N  0.87345117  0.58486438  0.89981637     0.66500
H3024       H  0.93189923  0.63171166  0.92399180     0.15400
H3025       H  0.92218639  0.51020919  0.91601651     0.15100
N3026       N  0.48860426  0.55911617  0.93560404     0.74200
O3027       O  0.84895454  0.58412970  0.91349812    -0.39300
O3028       O  0.88020597  0.60130667  0.87945637    -0.39200
O3029       O  0.48481712  0.54334297  0.95597737    -0.39900
O3030       O  0.51005134  0.55827125  0.91982675    -0.40000
C3031       C  0.68543360  0.87423861  0.93638246    -0.12200
C3032       C  0.68652351  0.87355251  0.91047284     0.04800
C3033       C  0.65674944  0.84535755  0.89784642    -0.07500
C3034       C  0.62827231  0.81736468  0.91105959    -0.08300
C3035       C  0.62901671  0.81588432  0.93685452    -0.02800
C3036       C  0.65724990  0.84560348  0.94966861     0.04000
N3037       N  0.65937902  0.84598561  0.97589363     0.66500
H3038       H  0.70781537  0.89617829  0.94655079     0.15400
H3039       H  0.60640865  0.79510440  0.90075301     0.15100
N3040       N  0.65726578  0.84158700  0.87183835     0.74200
O3041       O  0.67755897  0.83348357  0.98621314    -0.39300
O3042       O  0.65128171  0.86651981  0.98793406    -0.39200
O3043       O  0.66327816  0.81730645  0.86331487    -0.39900
O3044       O  0.64207954  0.85442186  0.85838921    -0.40000
C3045       C  0.97201500  0.79515545  0.00580299    -0.12200
C3046       C  0.93806414  0.78202263  0.99445969     0.04800
C3047       C  0.92935587  0.75829111  0.97395112    -0.07500
C3048       C  0.95379277  0.74670430  0.96630891    -0.08300
C3049       C  0.98692223  0.75857786  0.97875027    -0.02800
C3050       C  0.49530485  0.78388150  0.99519498     0.04000
N3051       N  0.53010740  0.80043493  0.00711532     0.66500
H3052       H  0.97968493  0.81377962  0.02123939     0.15400
H3053       H  0.94623152  0.72734557  0.95128876     0.15100
N3054       N  0.89565873  0.74518338  0.96102184     0.74200
O3055       O  0.55489677  0.83156979  0.00015119    -0.39300
O3056       O  0.53267349  0.78891753  0.02798964    -0.39200
O3057       O  0.86850077  0.71461334  0.96658209    -0.39900
O3058       O  0.89166097  0.76605473  0.94636850    -0.40000
C3059       C  0.68308627  0.76458312  0.02484524    -0.12200
C3060       C  0.66042169  0.72821765  0.01680922     0.04800
C3061       C  0.67358826  0.70355477  0.01924164    -0.07500
C3062       C  0.70880572  0.71575006  0.02836752    -0.08300
C3063       C  0.73205025  0.75235930  0.03537620    -0.02800
C3064       C  0.71842853  0.77677158  0.03410777     0.04000
N3065       N  0.74057166  0.81436336  0.04081895     0.66500
H3066       H  0.67362058  0.78416591  0.02348914     0.15400
H3067       H  0.71852361  0.69631368  0.02921713     0.15100
N3068       N  0.65273185  0.66658142  0.01101697     0.74200
O3069       O  0.75711338  0.83784348  0.02424540    -0.39300
O3070       O  0.73592918  0.82481252  0.06157484    -0.39200
O3071       O  0.65986973  0.65813939  0.99032349    -0.39900
O3072       O  0.63470202  0.64166523  0.02646413    -0.40000
loop_ 
_geom_bond_atom_site_label_1 
_geom_bond_atom_site_label_2 
_geom_bond_distance 
_geom_bond_site_symmetry_2 
_ccdc_geom_bond_type 
O1          Cr19   1.947       .  S
O1            C9   1.251       .  A
O2          Cr19   2.026   1_554  S
O2            C3   1.272       .  A
C3            O4   1.263   1_554  A
C3         C2222   1.485   1_455  S
O4          Cr20   1.971       .  S
O5          Cr20   2.019       .  S
O5         C1542   1.265   1_455  A
C6            O7   1.256       .  A
C6         O1541   1.267       .  A
C6          C714   1.493       .  S
O7        Cr1557   1.966       .  S
O8          Cr21   2.040       .  S
O8            C9   1.270       .  A
C9         C2281   1.483   1_455  S
O10         Cr19   2.026       .  S
O10          C18   1.268       .  A
O11         Cr19   1.968       .  S
O11          C12   1.255   1_556  A
C12          O13   1.267       .  A
C12         C756   1.485       .  S
O13         Cr20   2.019   1_554  S
O14         Cr20   1.977       .  S
O14          C15   1.262       .  A
C15          O16   1.276       .  A
C15         C700   1.487       .  S
O16         Cr21   2.036       .  S
O17         Cr21   1.937       .  S
O17          C18   1.254       .  A
C18         C731   1.478       .  S
Cr19         O22   1.779       .  S
Cr20         O22   1.778       .  S
Cr21       O1543   1.966   1_455  S
Cr21         O22   1.769       .  S
O23         Cr41   1.954       .  S
O23          C31   1.251       .  A
O24         Cr41   2.021       .  S
O24          C25   1.271       .  A
C25          O26   1.261       .  A
C25         C633   1.475       .  S
O26         Cr42   1.961       .  S
O27         Cr42   2.020       .  S
O27         C796   1.268       .  A
C28         O795   1.268   1_545  A
C28         O797   1.255       .  A
C28         C717   1.487       .  S
O29         Cr43   1.976       .  S
O29         C796   1.255       .  A
O30         Cr43   2.014       .  S
O30          C31   1.263       .  A
C31        C1412   1.468       .  S
O32         Cr41   2.022       .  S
O32          C40   1.271       .  A
O33         Cr41   1.979       .  S
O33          C34   1.256       .  A
C34          O35   1.267       .  A
C34         C661   1.493       .  S
O35         Cr42   2.021       .  S
O36         Cr42   1.978       .  S
O36          C37   1.263       .  A
C37          O38   1.271       .  A
C37         C672   1.481       .  S
O38         Cr43   2.026       .  S
O39         Cr43   1.939       .  S
O39          C40   1.255       .  A
C40         C728   1.476       .  S
Cr41         O44   1.779       .  S
Cr42         O44   1.772       .  S
Cr43         O44   1.777       .  S
O45         Cr63   1.951       .  S
O45          C53   1.253       .  A
O46         Cr63   2.045       .  S
O46          C47   1.275       .  A
C47          O48   1.261       .  A
C47         C546   1.484       .  S
O48         Cr64   1.960       .  S
O49         Cr64   2.030       .  S
O49          C50   1.269       .  A
C50          O51   1.256       .  A
C50         C577   1.496       .  S
O51         Cr65   1.972       .  S
O52         Cr65   2.032       .  S
O52          C53   1.269       .  A
C53         C605   1.478       .  S
O54         Cr63   2.037       .  S
O54          C62   1.274       .  A
O55         Cr63   1.969       .  S
O55          C56   1.254       .  A
C56          O57   1.267       .  A
C56         C616   1.489       .  S
O57         Cr64   2.023       .  S
O58         Cr64   1.975       .  S
O58          C59   1.262       .  A
C59          O60   1.274       .  A
C59         C563   1.480       .  S
O60         Cr65   2.036       .  S
O61         Cr65   1.947       .  S
O61          C62   1.254       .  A
C62         C591   1.488       .  S
Cr63         O66   1.775       .  S
Cr64         O66   1.768       .  S
Cr65         O66   1.773       .  S
O67         Cr85   1.938       .  S
O67          C75   1.248       .  A
O68         Cr85   2.036       .  S
O68          C69   1.275       .  A
C69          O70   1.259       .  A
C69         C493   1.482   1_455  S
O70         Cr86   1.970       .  S
O71         Cr86   2.023       .  S
O71        C1608   1.267   1_455  A
C72          O73   1.259       .  A
C72        O1607   1.263       .  A
C72         C574   1.484       .  S
O73       Cr1623   1.973       .  S
O74         Cr87   2.033       .  S
O74          C75   1.268       .  A
C75        C2040   1.472   1_455  S
O76         Cr85   2.037       .  S
O76          C84   1.275       .  A
O77         Cr85   1.966       .  S
O77          C78   1.254       .  A
C78          O79   1.270       .  A
C78         C521   1.488       .  S
O79         Cr86   2.023       .  S
O80         Cr86   1.981       .  S
O80          C81   1.263       .  A
C81          O82   1.274       .  A
C81         C535   1.479       .  S
O82         Cr87   2.027       .  S
O83         Cr87   1.936       .  S
O83          C84   1.252       .  A
C84         C588   1.480       .  S
Cr85         O88   1.761       .  S
Cr86         O88   1.762       .  S
Cr87       O1609   1.958   1_455  S
Cr87         O88   1.760       .  S
O89        Cr107   1.997       .  S
O89          C97   1.262       .  A
O90        Cr107   2.003       .  S
O90          C91   1.268       .  A
C91          O92   1.268       .  A
C91        C1328   1.493   1_545  S
O92        Cr108   1.998       .  S
O93        Cr108   1.994   1_565  S
O93         C862   1.263       .  A
C94          O95   1.257       .  A
C94         O861   1.261       .  A
C94         C462   1.475       .  S
O95        Cr877   1.972       .  S
O96        Cr109   1.994       .  S
O96          C97   1.264       .  A
C97        C1286   1.475   1_545  S
O98        Cr107   2.012       .  S
O98         C106   1.268       .  A
O99        Cr107   1.996       .  S
O99         C100   1.258       .  A
C100        O101   1.261       .  A
C100        C507   1.484       .  S
O101       Cr108   1.978       .  S
O102       Cr108   2.006       .  S
O102        C103   1.266       .  A
C103        O104   1.265       .  A
C103        C689   1.476       .  S
O104       Cr109   1.991       .  S
O105       Cr109   1.982       .  S
O105        C106   1.260       .  A
C106        C476   1.486       .  S
Cr107       O110   1.777       .  S
Cr108       O110   1.767       .  S
Cr109       O863   1.972       .  S
Cr109       O110   1.763       .  S
O111       Cr129   1.990       .  S
O111        C119   1.263       .  A
O112       Cr129   1.993   1_556  S
O112        C113   1.267       .  A
C113        O114   1.268       .  A
C113        C675   1.485       .  S
O114       Cr130   2.011   1_556  S
O115       Cr130   1.994       .  S
O115        C116   1.262       .  A
C116        O117   1.256       .  A
C116        C465   1.477       .  S
O117       Cr131   1.960       .  S
O118       Cr131   2.013       .  S
O118        C119   1.266       .  A
C119        C759   1.492       .  S
O120       Cr129   2.003       .  S
O120        C128   1.267       .  A
O121       Cr129   1.997   1_556  S
O121        C122   1.257   1_556  A
C122        O123   1.260       .  A
C122        C742   1.491   1_554  S
O123       Cr130   1.979       .  S
O124       Cr130   2.007       .  S
O124        C125   1.267       .  A
C125        O126   1.268       .  A
C125        C490   1.494       .  S
O126       Cr131   1.997       .  S
O127       Cr131   1.979       .  S
O127        C128   1.259       .  A
C128        C479   1.478       .  S
Cr129       O132   1.771       .  S
Cr130       O132   1.769       .  S
Cr131       O132   1.770       .  S
O133       Cr151   1.992       .  S
O133        C141   1.255       .  A
O134       Cr151   1.993       .  S
O134        C135   1.269       .  A
C135        O136   1.276       .  A
C135        C703   1.485       .  S
O136       Cr152   2.019       .  S
O137       Cr152   1.994       .  S
O137        C138   1.262       .  A
C138        O139   1.252       .  A
C138        C434   1.464       .  S
O139       Cr153   1.951       .  S
O140       Cr153   2.010       .  S
O140        C141   1.264       .  A
C141        C658   1.494       .  S
O142       Cr151   1.989       .  S
O142        C150   1.269       .  A
O143       Cr151   1.997       .  S
O143        C144   1.255       .  A
C144        O145   1.257       .  A
C144        C647   1.493       .  S
O145       Cr152   1.998       .  S
O146       Cr152   1.988       .  S
O146        C147   1.264       .  A
C147        O148   1.266       .  A
C147        C420   1.475       .  S
O148       Cr153   1.989       .  S
O149       Cr153   1.981       .  S
O149        C150   1.260       .  A
C150        C451   1.472       .  S
Cr151       O154   1.781       .  S
Cr152       O154   1.781       .  S
Cr153       O154   1.779       .  S
O155       Cr173   2.002       .  S
O155        C163   1.262       .  A
O156       Cr173   1.988       .  S
O156        C157   1.264       .  A
C157        O158   1.270       .  A
C157        C378   1.479       .  S
O158       Cr174   2.006       .  S
O159       Cr174   1.994       .  S
O159       C1696   1.264       .  A
C160        O161   1.256   1_455  A
C160       O1695   1.262   1_455  A
C160        C437   1.460       .  S
O161      Cr1711   1.969       .  S
O162       Cr175   2.002       .  S
O162        C163   1.267       .  A
C163       C1928   1.489       .  S
O164       Cr173   1.994       .  S
O164        C172   1.267       .  A
O165       Cr173   2.009       .  S
O165        C166   1.261       .  A
C166        O167   1.260       .  A
C166        C406   1.495       .  S
O167       Cr174   1.994       .  S
O168       Cr174   2.001       .  S
O168        C169   1.264       .  A
C169        O170   1.266       .  A
C169        C630   1.484       .  S
O170       Cr175   1.994       .  S
O171       Cr175   1.971       .  S
O171        C172   1.257       .  A
C172        C448   1.468       .  S
Cr173       O176   1.775       .  S
Cr174       O176   1.772       .  S
Cr175      O1697   1.971       .  S
Cr175       O176   1.765       .  S
O177       Cr195   1.990       .  S
O177        C185   1.261       .  A
O178       Cr195   1.990       .  S
O178        C179   1.268       .  A
C179        O180   1.270       .  A
C179        C308   1.489       .  S
O180       Cr196   2.007       .  S
O181       Cr196   1.983       .  S
O181       C1718   1.260       .  A
C182        O183   1.255   1_455  A
C182       O1717   1.260   1_455  A
C182        C322   1.460       .  S
O183      Cr1733   1.974       .  S
O184       Cr197   2.024       .  S
O184        C185   1.267       .  A
C185       C1886   1.497       .  S
O186       Cr195   1.991       .  S
O186        C194   1.264       .  A
O187       Cr195   1.994       .  S
O187        C188   1.257       .  A
C188        O189   1.260       .  A
C188        C367   1.494       .  S
O189       Cr196   1.996       .  S
O190       Cr196   1.995       .  S
O190        C191   1.265       .  A
C191        O192   1.267       .  A
C191        C549   1.488       .  S
O192       Cr197   1.998       .  S
O193       Cr197   1.985       .  S
O193        C194   1.262       .  A
C194        C339   1.458       .  S
Cr195       O198   1.769       .  S
Cr196       O198   1.764       .  S
Cr197      O1719   1.972       .  S
Cr197       O198   1.777       .  S
O199       Cr217   2.000       .  S
O199        C207   1.264       .  A
O200       Cr217   1.981       .  S
O200        C201   1.263       .  A
C201        O202   1.267       .  A
C201       C1300   1.481   1_545  S
O202       Cr218   2.005       .  S
O203       Cr218   1.966   1_565  S
O203        C972   1.258       .  A
C204        O205   1.255       .  A
C204        O971   1.263       .  A
C204        C325   1.478       .  S
O205       Cr987   1.977       .  S
O206       Cr219   2.006       .  S
O206        C207   1.268       .  A
C207       C1387   1.487   1_545  S
O208       Cr217   1.985       .  S
O208        C216   1.263       .  A
O209       Cr217   2.001       .  S
O209        C210   1.263       .  A
C210        O211   1.258       .  A
C210        C602   1.490       .  S
O211       Cr218   1.982       .  S
O212       Cr218   2.004       .  S
O212        C213   1.266       .  A
C213        O214   1.271       .  A
C213        C297   1.504       .  S
O214       Cr219   2.010       .  S
O215       Cr219   1.990       .  S
O215        C216   1.259       .  A
C216        C336   1.457       .  S
Cr217       O220   1.769       .  S
Cr218       O220   1.768       .  S
Cr219       O973   1.986       .  S
Cr219       O220   1.773       .  S
O221       Cr239   1.949       .  S
O221        C229   1.252       .  A
O222       Cr239   2.026       .  S
O222        C223   1.270       .  A
C223        O224   1.261       .  A
C223        C423   1.486       .  S
O224       Cr240   1.962       .  S
O225       Cr240   2.021       .  S
O225        C994   1.267       .  A
C226        O993   1.269   1_545  A
C226        O995   1.254       .  A
C226        C269   1.468       .  S
O227       Cr241   1.959       .  S
O227        C994   1.257       .  A
O228       Cr241   2.042       .  S
O228        C229   1.269       .  A
C229       C1177   1.492       .  S
O230       Cr239   2.026       .  S
O230        C238   1.271       .  A
O231       Cr239   1.972       .  S
O231        C232   1.256       .  A
C232        O233   1.269       .  A
C232        C395   1.491       .  S
O233       Cr240   2.021       .  S
O234       Cr240   1.978       .  S
O234        C235   1.264       .  A
C235        O236   1.273       .  A
C235        C311   1.489       .  S
O236       Cr241   2.031       .  S
O237       Cr241   1.936       .  S
O237        C238   1.254       .  A
C238        C280   1.466       .  S
Cr239       O242   1.769       .  S
Cr240       O242   1.767       .  S
Cr241       O242   1.774       .  S
O243       Cr261   1.976       .  S
O243        C251   1.255       .  A
O244       Cr261   2.007       .  S
O244        C245   1.267       .  A
C245        O246   1.270       .  A
C245        C294   1.491       .  S
O246       Cr262   2.007       .  S
O247       Cr262   1.994       .  S
O247        C248   1.259       .  A
C248        O249   1.255       .  A
C248        C266   1.474       .  S
O249       Cr263   1.960       .  S
O250       Cr263   2.033       .  S
O250        C251   1.266       .  A
C251        C364   1.495       .  S
O252       Cr261   2.004       .  S
O252        C260   1.272       .  A
O253       Cr261   2.006       .  S
O253        C254   1.262       .  A
C254        O255   1.259       .  A
C254        C353   1.490       .  S
O255       Cr262   1.988       .  S
O256       Cr262   2.004       .  S
O256        C257   1.267       .  A
C257        O258   1.269       .  A
C257        C381   1.492       .  S
O258       Cr263   1.991       .  S
O259       Cr263   1.997       .  S
O259        C260   1.265       .  A
C260        C283   1.480       .  S
Cr261       O264   1.773       .  S
Cr262       O264   1.781       .  S
Cr263       O264   1.774       .  S
C265        C266   1.404       .  A
C265        C270   1.390       .  A
C265        H272   1.087       .  S
C266        C267   1.411       .  A
C267        C268   1.402       .  A
C267        N274   1.428       .  S
C268        C269   1.404       .  A
C268        H273   1.087       .  S
C269        C270   1.407       .  A
C270        N271   1.428       .  S
N271        O275   1.260       .  A
N271        O276   1.262       .  A
N274        O278   1.262       .  A
N274        O277   1.262       .  A
C279        C280   1.392       .  A
C279        C284   1.396       .  A
C279        H286   1.085       .  S
C280        C281   1.411       .  A
C281        C282   1.404       .  A
C281        N288   1.431       .  S
C282        C283   1.403       .  A
C282        H287   1.083       .  S
C283        C284   1.417       .  A
C284        N285   1.425       .  S
N285        O289   1.262       .  A
N285        O290   1.261       .  A
N288        O292   1.262       .  A
N288        O291   1.263       .  A
C293        C294   1.400       .  A
C293        C298   1.402       .  A
C293        H300   1.087       .  S
C294        C295   1.414       .  A
C295        C296   1.409       .  A
C295        N302   1.427       .  S
C296        C297   1.408       .  A
C296        H301   1.087       .  S
C297        C298   1.423       .  A
C298        N299   1.430       .  S
N299        O303   1.262       .  A
N299        O304   1.261       .  A
N302        O306   1.260       .  A
N302        O305   1.262       .  A
C307        C308   1.406       .  A
C307       C1848   1.406       .  A
C307        H314   1.087       .  S
C308       C1845   1.418       .  A
C309        C310   1.405       .  A
C309       C1844   1.412       .  A
C309        N316   1.429   1_455  S
C310        C311   1.408       .  A
C310        H315   1.088       .  S
C311        C312   1.414       .  A
C312       C1843   1.398       .  A
C312        N313   1.428       .  S
N313       O1853   1.262       .  A
N313        O318   1.262       .  A
N316        O320   1.262       .  A
N316        O319   1.262       .  A
O317       N1849   1.262       .  A
C321        C322   1.394       .  A
C321        C326   1.397       .  A
C321        H328   1.089       .  S
C322        C323   1.410       .  A
C323        C324   1.391       .  A
C323        N330   1.429       .  S
C324        C325   1.399       .  A
C324        H329   1.088       .  S
C325        C326   1.422       .  A
C326        N327   1.429       .  S
N327        O331   1.262       .  A
N327        O332   1.262       .  A
N330        O334   1.261   1_455  A
N330        O333   1.262   1_455  A
C335        C336   1.396       .  A
C335        C340   1.395       .  A
C335        H342   1.086       .  S
C336        C337   1.409       .  A
C337        C338   1.393       .  A
C337        N344   1.425       .  S
C338        C339   1.397       .  A
C338        H343   1.086       .  S
C339        C340   1.409       .  A
C340        N341   1.425       .  S
N341        O345   1.260       .  A
N341        O346   1.260       .  A
N344        O348   1.262       .  A
N344        O347   1.262       .  A
C349       C1886   1.408       .  A
C349       C1890   1.396       .  A
C349        H356   1.087       .  S
C350       C1721   1.491   1_455  S
C350        C351   1.414       .  A
C350       C1885   1.405       .  A
C351        C352   1.409       .  A
C351        N358   1.429       .  S
C352        C353   1.408       .  A
C352        H357   1.086       .  S
C353        C354   1.411       .  A
C354       C1885   1.400       .  A
C354        N355   1.429       .  S
N355       O1895   1.261   1_455  A
N355        O360   1.262       .  A
N358        O362   1.262       .  A
N358        O361   1.262       .  A
O359       N1891   1.262       .  A
C363        C364   1.410       .  A
C363        C368   1.393       .  A
C363        H370   1.086       .  S
C364        C365   1.412       .  A
C365        C366   1.411       .  A
C365        N372   1.428       .  S
C366        C367   1.414       .  A
C366        H371   1.086       .  S
C367        C368   1.409       .  A
C368        N369   1.429       .  S
N369        O373   1.262       .  A
N369        O374   1.262       .  A
N372        O376   1.262       .  A
N372        O375   1.262       .  A
C377        C378   1.399       .  A
C377       C1918   1.398       .  A
C377        H384   1.085       .  S
C378       C1915   1.412       .  A
C379        C380   1.401       .  A
C379       C1914   1.410       .  A
C379        N386   1.426       .  S
C380        C381   1.402       .  A
C380        H385   1.086       .  S
C381        C382   1.418       .  A
C382       C1913   1.404   1_455  A
C382        N383   1.426       .  S
N383       O1923   1.262       .  A
N383        O388   1.261       .  A
N386        O390   1.261       .  A
N386        O389   1.262       .  A
O387       N1919   1.261       .  A
C391        C392   1.401       .  A
C391        C396   1.404       .  A
C391        H398   1.089       .  S
C392       C1699   1.489   1_455  S
C392        C393   1.418       .  A
C393        C394   1.398       .  A
C393       N1936   1.429   1_455  S
C394        C395   1.401       .  A
C394        H399   1.089       .  S
C395        C396   1.419       .  A
C396        N397   1.428       .  S
N397        O401   1.262       .  A
N397        O402   1.262       .  A
N400       C1929   1.430       .  S
N400        O404   1.262       .  A
N400        O403   1.262       .  A
C405        C406   1.411       .  A
C405        C410   1.412       .  A
C405        H412   1.087       .  S
C406        C407   1.412       .  A
C407       C1176   1.396       .  A
C407       N1182   1.428       .  S
C408       C1175   1.393       .  A
C408       C1177   1.408       .  A
C408        H413   1.087       .  S
C409        C997   1.494   1_545  S
C409        C410   1.413       .  A
C409       C1176   1.406       .  A
C410        N411   1.428       .  S
N411        O415   1.261       .  A
N411        O416   1.262       .  A
N414       C1175   1.429       .  S
N414        O418   1.262       .  A
N414        O417   1.262       .  A
C419        C420   1.404       .  A
C419       C1192   1.404   1_545  A
C419        H426   1.089       .  S
C420        C421   1.407       .  A
C421        C422   1.396       .  A
C421        N428   1.430       .  S
C422       C1191   1.408       .  A
C422        H427   1.088       .  S
C423        C424   1.413       .  A
C423       C1190   1.405       .  A
C424       C1187   1.403       .  A
C424        N425   1.428       .  S
N425        O429   1.262       .  A
N425        O430   1.262       .  A
N428        O432   1.262       .  A
N428        O431   1.261       .  A
C433        C434   1.400       .  A
C433        C438   1.394       .  A
C433        H440   1.088       .  S
C434        C435   1.411       .  A
C435        C436   1.400       .  A
C435        N442   1.429       .  S
C436        C437   1.400       .  A
C436        H441   1.088       .  S
C437        C438   1.408       .  A
C438        N439   1.429       .  S
N439        O443   1.262       .  A
N439        O444   1.262       .  A
N442        O446   1.262       .  A
N442        O445   1.262       .  A
C447        C448   1.394       .  A
C447        C452   1.395       .  A
C447        H454   1.087       .  S
C448        C449   1.418       .  A
C449        C450   1.391       .  A
C449        N456   1.430       .  S
C450        C451   1.393       .  A
C450        H455   1.087       .  S
C451        C452   1.419       .  A
C452        N453   1.428       .  S
N453        O457   1.262       .  A
N453        O458   1.261       .  A
N456        O460   1.261       .  A
N456        O459   1.262       .  A
C461        C462   1.410       .  A
C461        C466   1.396       .  A
C461        H468   1.087       .  S
C462        C463   1.405       .  A
C463        C464   1.393       .  A
C463        N470   1.429       .  S
C464        C465   1.411       .  A
C464        H469   1.087       .  S
C465        C466   1.406       .  A
C466        N467   1.429       .  S
N467        O471   1.262       .  A
N467        O472   1.262       .  A
N470        O474   1.262       .  A
N470        O473   1.262       .  A
C475        C476   1.414       .  A
C475        C480   1.401       .  A
C475        H482   1.084       .  S
C476        C477   1.408       .  A
C477        C478   1.400       .  A
C477        N484   1.428       .  S
C478        C479   1.408       .  A
C478        H483   1.085       .  S
C479        C480   1.403       .  A
C480        N481   1.429       .  S
N481        O485   1.262       .  A
N481        O486   1.262       .  A
N484        O488   1.262       .  A
N484        O487   1.262       .  A
C489        C490   1.404       .  A
C489        C494   1.404       .  A
C489        H496   1.087       .  S
C490        C491   1.420       .  A
C491       C2028   1.403       .  A
C491        N498   1.427       .  S
C492        C493   1.397   1_455  A
C492       C2027   1.405   1_455  A
C492        H497   1.087       .  S
C493       C2030   1.414       .  A
C494       C2029   1.414       .  A
C494        N495   1.429       .  S
N495        O499   1.262       .  A
N495        O500   1.262       .  A
N498       O2038   1.261       .  A
N498        O501   1.262       .  A
O502       N2034   1.261   1_455  A
C503        C504   1.396       .  A
C503        C508   1.402       .  A
C503        H510   1.087       .  S
C504       C1611   1.465       .  S
C504       C2041   1.409       .  A
C505       C2040   1.413       .  A
C505       C2042   1.390       .  A
C505        N512   1.431   1_655  S
C506        C507   1.402       .  A
C506       C2041   1.391       .  A
C506       H2047   1.086       .  S
C507        C508   1.421       .  A
C508        N509   1.428       .  S
N509        O513   1.262       .  A
N509        O514   1.262       .  A
H511       C2042   1.086       .  S
N512        O516   1.262       .  A
N512        O515   1.262       .  A
C517        C518   1.402       .  A
C517        C522   1.404       .  A
C517        H524   1.087       .  S
C518        C865   1.484       .  S
C518       C1287   1.415       .  A
C519       C1286   1.411       .  A
C519       C1288   1.396       .  A
C519        N526   1.429   1_565  S
C520        C521   1.401       .  A
C520       C1287   1.397       .  A
C520       H1293   1.086       .  S
C521        C522   1.419       .  A
C522        N523   1.429       .  S
N523        O527   1.262       .  A
N523        O528   1.262       .  A
H525       C1288   1.086       .  S
N526        O530   1.262       .  A
N526        O529   1.262       .  A
C531        C532   1.405       .  A
C531        C536   1.404       .  A
C531       H1306   1.088       .  S
C532        C969   1.487       .  S
C532        C533   1.416       .  A
C533        C534   1.398       .  A
C533        N540   1.427       .  S
C534        C535   1.399       .  A
C534        H539   1.088       .  S
C535        C536   1.412       .  A
C536        N537   1.428       .  S
N537        O541   1.262       .  A
N537        O542   1.262       .  A
H538       C1299   1.087   1_545  S
N540        O544   1.261       .  A
N540       O1311   1.262       .  A
O543       N1308   1.262       .  A
C545        C546   1.405       .  A
C545        C550   1.399       .  A
C545        H552   1.086       .  S
C546        C547   1.410       .  A
C547        C548   1.405       .  A
C547        N554   1.428       .  S
C548        C549   1.409       .  A
C548        H553   1.085       .  S
C549        C550   1.410       .  A
C550        N551   1.428       .  S
N551        O555   1.262       .  A
N551        O556   1.261       .  A
N554        O558   1.262       .  A
N554        O557   1.262       .  A
C559        C560   1.410       .  A
C559        C564   1.400       .  A
C559        H566   1.085       .  S
C560        C859   1.496       .  S
C560       C1329   1.416       .  A
C561       C1328   1.415       .  A
C561       C1330   1.408       .  A
C561        N568   1.428       .  S
C562        C563   1.404       .  A
C562       C1329   1.407       .  A
C562        H567   1.086       .  S
C563        C564   1.407       .  A
C564        N565   1.430       .  S
N565        O569   1.262       .  A
N565        O570   1.262       .  A
N568        O572   1.262   1_565  A
N568        O571   1.262       .  A
C573        C574   1.397       .  A
C573        C578   1.397       .  A
C573        H580   1.086       .  S
C574        C575   1.413       .  A
C575        C576   1.405       .  A
C575        N582   1.428       .  S
C576        C577   1.409       .  A
C576        H581   1.084       .  S
C577        C578   1.419       .  A
C578        N579   1.427       .  S
N579        O583   1.262       .  A
N579        O584   1.261       .  A
N582        O586   1.261       .  A
N582       O2121   1.262       .  A
O585       N2118   1.262       .  A
C587        C588   1.394       .  A
C587        C592   1.396       .  A
C587        H594   1.085       .  S
C588        C589   1.420       .  A
C589        C590   1.404       .  A
C589        N596   1.433       .  S
C590        C591   1.403       .  A
C590        H595   1.084       .  S
C591        C592   1.421       .  A
C592        N593   1.428       .  S
N593        O597   1.262       .  A
N593        O598   1.262       .  A
N596        O600   1.262       .  A
N596        O599   1.263       .  A
C601        C602   1.408       .  A
C601        C606   1.401       .  A
C601        H608   1.086       .  S
C602        C603   1.414       .  A
C603        C604   1.398       .  A
C603        N610   1.426       .  S
C604        C605   1.402       .  A
C604        H609   1.087       .  S
C605        C606   1.405       .  A
C606        N607   1.422       .  S
N607        O611   1.261       .  A
N607        O612   1.262       .  A
N610        O614   1.262       .  A
N610        O613   1.262       .  A
C615        C616   1.398       .  A
C615       C1388   1.399       .  A
C615        H622   1.083       .  S
C616        C617   1.417       .  A
C617        C618   1.409       .  A
C617        N624   1.429       .  S
C618        C619   1.406       .  A
C618        H623   1.082       .  S
C619        C975   1.496       .  S
C619       C1388   1.420       .  A
C620       C1383   1.395       .  A
C620       C1387   1.416       .  A
C620        N621   1.427   1_565  S
N621        O625   1.261       .  A
N621        O626   1.262       .  A
N624        O628   1.262       .  A
N624        O627   1.262       .  A
C629        C630   1.404       .  A
C629        C634   1.404       .  A
C629        H636   1.086       .  S
C630        C631   1.413       .  A
C631        C632   1.401       .  A
C631        N638   1.429       .  S
C632       C1401   1.403       .  A
C632       H1405   1.087   1_545  S
C633       C1400   1.401       .  A
C633       C1402   1.413       .  A
C634       C1401   1.412       .  A
C634        N635   1.428       .  S
N635        O639   1.262       .  A
N635       O1408   1.262       .  A
H637       C1400   1.087       .  S
N638        O642   1.262       .  A
N638        O641   1.262       .  A
O640       N1403   1.262       .  A
C643        C644   1.395       .  A
C643        C648   1.402       .  A
C643        H650   1.085       .  S
C644        C799   1.470   1_545  S
C644       C1413   1.406       .  A
C645       C1412   1.406       .  A
C645       C1414   1.402       .  A
C645        N652   1.430       .  S
C646        C647   1.408       .  A
C646       C1413   1.406       .  A
C646       H1419   1.083       .  S
C647        C648   1.419       .  A
C648        N649   1.427       .  S
N649        O653   1.262       .  A
N649        O654   1.261       .  A
H651       C1414   1.083       .  S
N652        O656   1.262       .  A
N652        O655   1.262       .  A
C657        C658   1.402       .  A
C657        C662   1.405       .  A
C657        H664   1.089       .  S
C658        C659   1.421       .  A
C659        C660   1.401       .  A
C659        N666   1.430       .  S
C660        C661   1.401       .  A
C660        H665   1.089       .  S
C661        C662   1.418       .  A
C662        N663   1.428       .  S
N663        O667   1.262       .  A
N663        O668   1.261       .  A
N666        O670   1.262       .  A
N666        O669   1.262       .  A
C671        C672   1.401       .  A
C671        C676   1.402       .  A
C671        H678   1.086       .  S
C672        C673   1.412       .  A
C673        C674   1.405       .  A
C673        N680   1.428       .  S
C674        C675   1.404       .  A
C674        H679   1.086       .  S
C675        C676   1.414       .  A
C676        N677   1.429       .  S
N677        O681   1.262       .  A
N677        O682   1.262       .  A
N680        O684   1.262       .  A
N680        O683   1.262       .  A
C685        C686   1.402       .  A
C685        C690   1.397       .  A
C685        H692   1.086       .  S
C686       C1539   1.483       .  S
C686        C687   1.415       .  A
C687        C688   1.405       .  A
C687       N2230   1.426       .  S
C688        C689   1.401       .  A
C688        H693   1.086       .  S
C689        C690   1.411       .  A
C690        N691   1.428       .  S
N691        O695   1.262       .  A
N691        O696   1.262       .  A
N694       C2223   1.428       .  S
N694        O698   1.262   1_655  A
N694        O697   1.262       .  A
C699        C700   1.405       .  A
C699        C704   1.407       .  A
C699        H706   1.088       .  S
C700        C701   1.415       .  A
C701        C702   1.402       .  A
C701        N708   1.429       .  S
C702        C703   1.401       .  A
C702        H707   1.088       .  S
C703        C704   1.414       .  A
C704        N705   1.429       .  S
N705        O709   1.262       .  A
N705        O710   1.262       .  A
N708        O712   1.260       .  A
N708        O711   1.260       .  A
C713        C714   1.407       .  A
C713        C718   1.401       .  A
C713        H720   1.086       .  S
C714        C715   1.415       .  A
C715        C716   1.400       .  A
C715       N2258   1.425       .  S
C716        C717   1.402       .  A
C716        H721   1.087       .  S
C717        C718   1.414       .  A
C718        N719   1.429       .  S
N719        O723   1.262       .  A
N719        O724   1.262       .  A
N722       C2251   1.426       .  S
N722        O726   1.262   1_655  A
N722        O725   1.262       .  A
C727        C728   1.409       .  A
C727        C732   1.399       .  A
C727        H734   1.087       .  S
C728        C729   1.405       .  A
C729        C730   1.392       .  A
C729        N736   1.426       .  S
C730        C731   1.407       .  A
C730        H735   1.087       .  S
C731        C732   1.408       .  A
C732        N733   1.428       .  S
N733        O737   1.262       .  A
N733        O738   1.262       .  A
N736        O740   1.262       .  A
N736        O739   1.261       .  A
C741        C742   1.396   1_554  A
C741       C2282   1.390   1_554  A
C741        H748   1.090       .  S
C742        C743   1.420       .  A
C743        C744   1.412       .  A
C743        N750   1.429       .  S
C744        C745   1.405       .  A
C744        H749   1.086       .  S
C745       C1545   1.486       .  S
C745       C2282   1.415       .  A
C746       C2277   1.392   1_556  A
C746       C2281   1.413       .  A
C746        N747   1.430   1_656  S
N747        O751   1.261   1_554  A
N747        O752   1.262       .  A
N750        O754   1.262       .  A
N750        O753   1.262       .  A
C755        C756   1.408       .  A
C755        C760   1.407       .  A
C755        H762   1.087       .  S
C756        C757   1.407       .  A
C757        C758   1.395       .  A
C757        N764   1.426   1_554  S
C758        C759   1.408       .  A
C758        H763   1.087       .  S
C759        C760   1.413       .  A
C760        N761   1.427       .  S
N761        O765   1.262       .  A
N761        O766   1.262       .  A
N764        O768   1.262   1_556  A
N764        O767   1.261       .  A
O769       Cr787   1.941       .  S
O769        C777   1.250       .  A
O770       Cr787   2.031   1_554  S
O770        C771   1.274       .  A
C771        O772   1.262       .  A
C771       C2990   1.489   1_455  S
O772       Cr788   1.970   1_554  S
O773       Cr788   2.022       .  S
O773       C2310   1.266   1_455  A
C774       O2309   1.267       .  A
C774        O775   1.258       .  A
C774       C1482   1.495       .  S
O775      Cr2325   1.969       .  S
O776       Cr789   2.036       .  S
O776        C777   1.269       .  A
C777       C3049   1.480   1_455  S
O778       Cr787   2.026       .  S
O778        C786   1.270       .  A
O779       Cr787   1.963       .  S
O779        C780   1.254   1_556  A
C780        O781   1.268       .  A
C780       C1524   1.494       .  S
O781       Cr788   2.030   1_554  S
O782       Cr788   1.978       .  S
O782        C783   1.263       .  A
C783        O784   1.275       .  A
C783       C1468   1.488       .  S
O784       Cr789   2.034       .  S
O785       Cr789   1.943       .  S
O785        C786   1.254       .  A
C786       C1499   1.480       .  S
Cr787       O790   1.775       .  S
Cr788       O790   1.778       .  S
Cr789      O2311   1.971   1_455  S
Cr789       O790   1.773       .  S
O791       Cr809   1.959       .  S
O791        C799   1.253       .  A
O792       Cr809   2.028       .  S
O792        C793   1.272       .  A
C793        O794   1.262       .  A
C793       C1401   1.482   1_565  S
O794       Cr810   1.968       .  S
O795       Cr810   2.020       .  S
C796       C1485   1.486       .  S
O797       Cr811   1.973   1_545  S
O798       Cr811   2.017       .  S
O798        C799   1.264       .  A
O800       Cr809   2.035       .  S
O800        C808   1.273       .  A
O801       Cr809   1.979       .  S
O801        C802   1.257       .  A
C802        O803   1.267       .  A
C802       C1429   1.488       .  S
O803       Cr810   2.016       .  S
O804       Cr810   1.981       .  S
O804        C805   1.262       .  A
C805        O806   1.271       .  A
C805       C1440   1.485       .  S
O806       Cr811   2.026       .  S
O807       Cr811   1.938       .  S
O807        C808   1.254       .  A
C808       C1496   1.484       .  S
Cr809       O812   1.781       .  S
Cr810       O812   1.774       .  S
Cr811       O812   1.776       .  S
O813       Cr831   1.943       .  S
O813        C821   1.251       .  A
O814       Cr831   2.040       .  S
O814        C815   1.275       .  A
C815        O816   1.261       .  A
C815       C1314   1.480       .  S
O816       Cr832   1.960       .  S
O817       Cr832   2.020       .  S
O817        C818   1.267       .  A
C818        O819   1.259       .  A
C818       C1345   1.487       .  S
O819       Cr833   1.978       .  S
O820       Cr833   2.046       .  S
O820        C821   1.271       .  A
C821       C1373   1.488       .  S
O822       Cr831   2.039       .  S
O822        C830   1.274       .  A
O823       Cr831   1.965       .  S
O823        C824   1.253       .  A
C824        O825   1.265       .  A
C824       C1384   1.484       .  S
O825       Cr832   2.015       .  S
O826       Cr832   1.977       .  S
O826        C827   1.264       .  A
C827        O828   1.276       .  A
C827       C1331   1.481       .  S
O828       Cr833   2.040       .  S
O829       Cr833   1.944       .  S
O829        C830   1.253       .  A
C830       C1359   1.490       .  S
Cr831       O834   1.769       .  S
Cr832       O834   1.766       .  S
Cr833       O834   1.770       .  S
O835       Cr853   1.945       .  S
O835        C843   1.251       .  A
O836       Cr853   2.035       .  S
O836        C837   1.275       .  A
C837        O838   1.260       .  A
C837       C1261   1.481   1_455  S
O838       Cr854   1.971       .  S
O839       Cr854   2.013       .  S
O839       C2376   1.264   1_455  A
C840       O2375   1.265       .  A
C840        O841   1.258       .  A
C840       C1342   1.484       .  S
O841      Cr2391   1.967       .  S
O842       Cr855   2.015       .  S
O842        C843   1.264       .  A
C843       C2808   1.463   1_455  S
O844       Cr853   2.024       .  S
O844        C852   1.272       .  A
O845       Cr853   1.967       .  S
O845        C846   1.253       .  A
C846        O847   1.267       .  A
C846       C1289   1.487       .  S
O847       Cr854   2.014       .  S
O848       Cr854   1.988       .  S
O848        C849   1.265       .  A
C849        O850   1.272       .  A
C849       C1303   1.482       .  S
O850       Cr855   2.019       .  S
O851       Cr855   1.940       .  S
O851        C852   1.255       .  A
C852       C1356   1.473       .  S
Cr853       O856   1.766       .  S
Cr854       O856   1.767       .  S
Cr855      O2377   1.960   1_455  S
Cr855       O856   1.761       .  S
O857       Cr875   1.998       .  S
O857        C865   1.263       .  A
O858       Cr875   2.003       .  S
O858        C859   1.268       .  A
C859        O860   1.269       .  A
O860       Cr876   2.001       .  S
O861       Cr876   1.989       .  S
C862        O863   1.258   1_565  A
C862       C1230   1.483       .  S
O864       Cr877   2.001       .  S
O864        C865   1.267       .  A
O866       Cr875   2.021       .  S
O866        C874   1.270       .  A
O867       Cr875   1.998       .  S
O867        C868   1.258       .  A
C868        O869   1.261       .  A
C868       C1275   1.483       .  S
O869       Cr876   1.978       .  S
O870       Cr876   2.012       .  S
O870        C871   1.268       .  A
C871        O872   1.268       .  A
C871       C1457   1.486       .  S
O872       Cr877   1.998       .  S
O873       Cr877   1.980       .  S
O873        C874   1.259       .  A
C874       C1244   1.494       .  S
Cr875       O878   1.776       .  S
Cr876       O878   1.768       .  S
Cr877       O878   1.766       .  S
O879       Cr897   1.994       .  S
O879        C887   1.263       .  A
O880       Cr897   1.993   1_556  S
O880        C881   1.268       .  A
C881        O882   1.268       .  A
C881       C1443   1.485       .  S
O882       Cr898   2.013   1_556  S
O883       Cr898   1.996       .  S
O883        C884   1.263       .  A
C884        O885   1.255       .  A
C884       C1233   1.473       .  S
O885       Cr899   1.963       .  S
O886       Cr899   2.014       .  S
O886        C887   1.267       .  A
C887       C1527   1.490       .  S
O888       Cr897   2.004       .  S
O888        C896   1.267       .  A
O889       Cr897   1.997   1_556  S
O889        C890   1.258   1_556  A
C890        O891   1.259       .  A
C890       C1510   1.489   1_554  S
O891       Cr898   1.975       .  S
O892       Cr898   2.008       .  S
O892        C893   1.267       .  A
C893        O894   1.267       .  A
C893       C1258   1.488       .  S
O894       Cr899   1.992       .  S
O895       Cr899   1.981       .  S
O895        C896   1.258       .  A
C896       C1247   1.474       .  S
Cr897       O900   1.774       .  S
Cr898       O900   1.772       .  S
Cr899       O900   1.773       .  S
O901       Cr919   1.988       .  S
O901        C909   1.253       .  A
O902       Cr919   1.996       .  S
O902        C903   1.270       .  A
C903        O904   1.276       .  A
C903       C1471   1.486       .  S
O904       Cr920   2.017       .  S
O905       Cr920   1.994       .  S
O905        C906   1.262       .  A
C906        O907   1.253       .  A
C906       C1202   1.463       .  S
O907       Cr921   1.953       .  S
O908       Cr921   2.013       .  S
O908        C909   1.263       .  A
C909       C1426   1.496       .  S
O910       Cr919   1.992       .  S
O910        C918   1.270       .  A
O911       Cr919   1.994       .  S
O911        C912   1.254       .  A
C912        O913   1.256       .  A
C912       C1415   1.491       .  S
O913       Cr920   1.996       .  S
O914       Cr920   1.981       .  S
O914        C915   1.262       .  A
C915        O916   1.265       .  A
C915       C1188   1.475       .  S
O916       Cr921   1.989       .  S
O917       Cr921   1.987       .  S
O917        C918   1.264       .  A
C918       C1219   1.472       .  S
Cr919       O922   1.782       .  S
Cr920       O922   1.779       .  S
Cr921       O922   1.777       .  S
O923       Cr941   1.998       .  S
O923        C931   1.262       .  A
O924       Cr941   2.000       .  S
O924        C925   1.268       .  A
C925        O926   1.271       .  A
C925       C1146   1.497       .  S
O926       Cr942   2.009       .  S
O927       Cr942   1.988       .  S
O927       C2464   1.263       .  A
C928       O2463   1.263   1_455  A
C928        O929   1.257   1_455  A
C928       C1205   1.463       .  S
O929      Cr2479   1.970       .  S
O930       Cr943   1.987       .  S
O930        C931   1.265       .  A
C931       C2696   1.477       .  S
O932       Cr941   2.005       .  S
O932        C940   1.269       .  A
O933       Cr941   2.004       .  S
O933        C934   1.260       .  A
C934        O935   1.260       .  A
C934       C1174   1.487       .  S
O935       Cr942   1.992       .  S
O936       Cr942   1.997       .  S
O936        C937   1.263       .  A
C937        O938   1.264       .  A
C937       C1398   1.475       .  S
O938       Cr943   1.988       .  S
O939       Cr943   1.970       .  S
O939        C940   1.254       .  A
C940       C1216   1.478       .  S
Cr941       O944   1.771       .  S
Cr942       O944   1.768       .  S
Cr943      O2465   1.970       .  S
Cr943       O944   1.767       .  S
O945       Cr963   2.002       .  S
O945        C953   1.265       .  A
O946       Cr963   1.992       .  S
O946        C947   1.268       .  A
C947        O948   1.269       .  A
C947       C1076   1.486       .  S
O948       Cr964   2.007       .  S
O949       Cr964   1.978       .  S
O949       C2486   1.259       .  A
C950       O2485   1.257   1_455  A
C950        O951   1.254   1_455  A
C950       C1090   1.450       .  S
O951      Cr2501   1.968       .  S
O952       Cr965   2.015       .  S
O952        C953   1.266       .  A
C953       C2654   1.502       .  S
O954       Cr963   1.994       .  S
O954        C962   1.263       .  A
O955       Cr963   1.999       .  S
O955        C956   1.259       .  A
C956        O957   1.260       .  A
C956       C1135   1.496       .  S
O957       Cr964   1.994       .  S
O958       Cr964   1.997       .  S
O958        C959   1.265       .  A
C959        O960   1.266       .  A
C959       C1317   1.485       .  S
O960       Cr965   1.992       .  S
O961       Cr965   1.984       .  S
O961        C962   1.261       .  A
C962       C1107   1.460       .  S
Cr963       O966   1.771       .  S
Cr964       O966   1.766       .  S
Cr965      O2487   1.971       .  S
Cr965       O966   1.778       .  S
O967       Cr985   2.000       .  S
O967        C975   1.264       .  A
O968       Cr985   1.985       .  S
O968        C969   1.265       .  A
C969        O970   1.267       .  A
O970       Cr986   2.004       .  S
O971       Cr986   1.982       .  S
C972        O973   1.258   1_565  A
C972       C1093   1.466       .  S
O974       Cr987   2.014       .  S
O974        C975   1.271       .  A
O976       Cr985   1.995       .  S
O976        C984   1.264       .  A
O977       Cr985   1.994       .  S
O977        C978   1.261       .  A
C978        O979   1.260       .  A
C978       C1370   1.489       .  S
O979       Cr986   1.990       .  S
O980       Cr986   1.992       .  S
O980        C981   1.263       .  A
C981        O982   1.273       .  A
C981       C1065   1.500       .  S
O982       Cr987   2.016       .  S
O983       Cr987   1.981       .  S
O983        C984   1.255       .  A
C984       C1104   1.462       .  S
Cr985       O988   1.769       .  S
Cr986       O988   1.769       .  S
Cr987       O988   1.772       .  S
O989      Cr1007   1.955       .  S
O989        C997   1.254       .  A
O990      Cr1007   2.032       .  S
O990        C991   1.274       .  A
C991        O992   1.262       .  A
C991       C1191   1.488   1_565  S
O992      Cr1008   1.958       .  S
O993      Cr1008   2.027       .  S
C994       C1037   1.470       .  S
O995      Cr1009   1.959   1_545  S
O996      Cr1009   2.043       .  S
O996        C997   1.268       .  A
O998      Cr1007   2.032       .  S
O998       C1006   1.274       .  A
O999      Cr1007   1.971       .  S
O999       C1000   1.255       .  A
C1000      O1001   1.267       .  A
C1000      C1163   1.489       .  S
O1001     Cr1008   2.018       .  S
O1002     Cr1008   1.978       .  S
O1002      C1003   1.261       .  A
C1003      O1004   1.276       .  A
C1003      C1079   1.489       .  S
O1004     Cr1009   2.038       .  S
O1005     Cr1009   1.927       .  S
O1005      C1006   1.251       .  A
C1006      C1048   1.471       .  S
Cr1007     O1010   1.764       .  S
Cr1008     O1010   1.766       .  S
Cr1009     O1010   1.767       .  S
O1011     Cr1029   1.982       .  S
O1011      C1019   1.259       .  A
O1012     Cr1029   2.000       .  S
O1012      C1013   1.264       .  A
C1013      O1014   1.269       .  A
C1013      C1062   1.490       .  S
O1014     Cr1030   2.006       .  S
O1015     Cr1030   1.995       .  S
O1015      C1016   1.260       .  A
C1016      O1017   1.259       .  A
C1016      C1034   1.470       .  S
O1017     Cr1031   1.980       .  S
O1018     Cr1031   2.029       .  S
O1018      C1019   1.269       .  A
C1019      C1132   1.496       .  S
O1020     Cr1029   1.996       .  S
O1020      C1028   1.270       .  A
O1021     Cr1029   2.014       .  S
O1021      C1022   1.265       .  A
C1022      O1023   1.262       .  A
C1022      C1121   1.506       .  S
O1023     Cr1030   1.999       .  S
O1024     Cr1030   2.009       .  S
O1024      C1025   1.267       .  A
C1025      O1026   1.268       .  A
C1025      C1149   1.486       .  S
O1026     Cr1031   1.997       .  S
O1027     Cr1031   1.993       .  S
O1027      C1028   1.263       .  A
C1028      C1051   1.478       .  S
Cr1029     O1032   1.766       .  S
Cr1030     O1032   1.771       .  S
Cr1031     O1032   1.770       .  S
C1033      C1034   1.403       .  A
C1033      C1038   1.396       .  A
C1033      H1040   1.077       .  S
C1034      C1035   1.406       .  A
C1035      C1036   1.401       .  A
C1035      N1042   1.427       .  S
C1036      C1037   1.406       .  A
C1036      H1041   1.083       .  S
C1037      C1038   1.405       .  A
C1038      N1039   1.428       .  S
N1039      O1043   1.261       .  A
N1039      O1044   1.262       .  A
N1042      O1046   1.262       .  A
N1042      O1045   1.262       .  A
C1047      C1048   1.394       .  A
C1047      C1052   1.397       .  A
C1047      H1054   1.085       .  S
C1048      C1049   1.416       .  A
C1049      C1050   1.399       .  A
C1049      N1056   1.433       .  S
C1050      C1051   1.401       .  A
C1050      H1055   1.084       .  S
C1051      C1052   1.419       .  A
C1052      N1053   1.429       .  S
N1053      O1057   1.262       .  A
N1053      O1058   1.261       .  A
N1056      O1060   1.262       .  A
N1056      O1059   1.263       .  A
C1061      C1062   1.399       .  A
C1061      C1066   1.399       .  A
C1061      H1068   1.086       .  S
C1062      C1063   1.415       .  A
C1063      C1064   1.408       .  A
C1063      N1070   1.426       .  S
C1064      C1065   1.406       .  A
C1064      H1069   1.085       .  S
C1065      C1066   1.424       .  A
C1066      N1067   1.429       .  S
N1067      O1071   1.262       .  A
N1067      O1072   1.262       .  A
N1070      O1074   1.260       .  A
N1070      O1073   1.261       .  A
C1075      C1076   1.404       .  A
C1075      C2616   1.407       .  A
C1075      H1082   1.087       .  S
C1076      C2613   1.415       .  A
C1077      C2612   1.415       .  A
C1077      C1078   1.400       .  A
C1077      N1084   1.428       .  S
C1078      C1079   1.401       .  A
C1078      H1083   1.088       .  S
C1079      C1080   1.417       .  A
C1080      C2611   1.406       .  A
C1080      N1081   1.428       .  S
N1081      O2621   1.262       .  A
N1081      O1086   1.262       .  A
N1084      O1088   1.261       .  A
N1084      O1087   1.262       .  A
O1085      N2617   1.262       .  A
C1089      C1090   1.395       .  A
C1089      C1094   1.395       .  A
C1089      H1096   1.087       .  S
C1090      C1091   1.405       .  A
C1091      C1092   1.390       .  A
C1091      N1098   1.428       .  S
C1092      C1093   1.401       .  A
C1092      H1097   1.087       .  S
C1093      C1094   1.414       .  A
C1094      N1095   1.428       .  S
N1095      O1099   1.262       .  A
N1095      O1100   1.262       .  A
N1098      O1102   1.261   1_455  A
N1098      O1101   1.262   1_455  A
C1103      C1104   1.396       .  A
C1103      C1108   1.396       .  A
C1103      H1110   1.087       .  S
C1104      C1105   1.412       .  A
C1105      C1106   1.394       .  A
C1105      N1112   1.427       .  S
C1106      C1107   1.396       .  A
C1106      H1111   1.087       .  S
C1107      C1108   1.410       .  A
C1108      N1109   1.425       .  S
N1109      O1113   1.260       .  A
N1109      O1114   1.260       .  A
N1112      O1116   1.262       .  A
N1112      O1115   1.261       .  A
C1117      C2654   1.408       .  A
C1117      C2658   1.398       .  A
C1117      H1124   1.086       .  S
C1118      C2489   1.508   1_455  S
C1118      C2653   1.411       .  A
C1118      C1119   1.415       .  A
C1119      C1120   1.412       .  A
C1119      N1126   1.428       .  S
C1120      C1121   1.412       .  A
C1120      H1125   1.086       .  S
C1121      C1122   1.415       .  A
C1122      C2653   1.403       .  A
C1122      N1123   1.429       .  S
N1123      O2663   1.262       .  A
N1123      O1128   1.262   1_455  A
N1126      O1130   1.262       .  A
N1126      O1129   1.262       .  A
O1127      N2659   1.262       .  A
C1131      C1132   1.409       .  A
C1131      C1136   1.394       .  A
C1131      H1138   1.086       .  S
C1132      C1133   1.412       .  A
C1133      C1134   1.411       .  A
C1133      N1140   1.428       .  S
C1134      C1135   1.414       .  A
C1134      H1139   1.086       .  S
C1135      C1136   1.411       .  A
C1136      N1137   1.429       .  S
N1137      O1141   1.261       .  A
N1137      O1142   1.261       .  A
N1140      O1144   1.262       .  A
N1140      O1143   1.262       .  A
C1145      C1146   1.407       .  A
C1145      C2686   1.403       .  A
C1145      H1152   1.087       .  S
C1146      C2683   1.416       .  A
C1147      C2682   1.417       .  A
C1147      C1148   1.406       .  A
C1147      N1154   1.428       .  S
C1148      C1149   1.404       .  A
C1148      H1153   1.088       .  S
C1149      C1150   1.412       .  A
C1150      C2681   1.397       .  A
C1150      N1151   1.428       .  S
N1151      O2691   1.262       .  A
N1151      O1156   1.262       .  A
N1154      O1158   1.262       .  A
N1154      O1157   1.262       .  A
O1155      N2687   1.262       .  A
C1159      C1160   1.400       .  A
C1159      C1164   1.401       .  A
C1159      H1166   1.087       .  S
C1160      C2467   1.485   1_455  S
C1160      C1161   1.417       .  A
C1161      C1162   1.400       .  A
C1161      N2704   1.430   1_455  S
C1162      C1163   1.402       .  A
C1162      H1167   1.087       .  S
C1163      C1164   1.417       .  A
C1164      N1165   1.428       .  S
N1165      O1169   1.262       .  A
N1165      O1170   1.262       .  A
N1168      C2697   1.430       .  S
N1168      O1172   1.262       .  A
N1168      O1171   1.262       .  A
C1173      C1174   1.410       .  A
C1173      C1178   1.410       .  A
C1173      H1180   1.087       .  S
C1174      C1175   1.409       .  A
C1176      H1181   1.087   1_545  S
C1177      C1178   1.413       .  A
C1178      N1179   1.428       .  S
N1179      O1183   1.262       .  A
N1179      O1184   1.262       .  A
N1182      O1186   1.262   1_545  A
N1182      O1185   1.262       .  A
C1187      C1188   1.404       .  A
C1187      H1194   1.092       .  S
C1188      C1189   1.408       .  A
C1189      C1190   1.395       .  A
C1189      N1196   1.429       .  S
C1190      H1195   1.095       .  S
C1191      C1192   1.414   1_545  A
C1192      N1193   1.428       .  S
N1193      O1197   1.262       .  A
N1193      O1198   1.262       .  A
N1196      O1200   1.262       .  A
N1196      O1199   1.262       .  A
C1201      C1202   1.399       .  A
C1201      C1206   1.394       .  A
C1201      H1208   1.088       .  S
C1202      C1203   1.411       .  A
C1203      C1204   1.400       .  A
C1203      N1210   1.429       .  S
C1204      C1205   1.400       .  A
C1204      H1209   1.088       .  S
C1205      C1206   1.409       .  A
C1206      N1207   1.429       .  S
N1207      O1211   1.262       .  A
N1207      O1212   1.262       .  A
N1210      O1214   1.262       .  A
N1210      O1213   1.262       .  A
C1215      C1216   1.395       .  A
C1215      C1220   1.395       .  A
C1215      H1222   1.087       .  S
C1216      C1217   1.423       .  A
C1217      C1218   1.396       .  A
C1217      N1224   1.429       .  S
C1218      C1219   1.393       .  A
C1218      H1223   1.087       .  S
C1219      C1220   1.417       .  A
C1220      N1221   1.426       .  S
N1221      O1225   1.262       .  A
N1221      O1226   1.262       .  A
N1224      O1228   1.262       .  A
N1224      O1227   1.262       .  A
C1229      C1230   1.413       .  A
C1229      C1234   1.395       .  A
C1229      H1236   1.086       .  S
C1230      C1231   1.409       .  A
C1231      C1232   1.397       .  A
C1231      N1238   1.429       .  S
C1232      C1233   1.409       .  A
C1232      H1237   1.087       .  S
C1233      C1234   1.402       .  A
C1234      N1235   1.429       .  S
N1235      O1239   1.262       .  A
N1235      O1240   1.262       .  A
N1238      O1242   1.262       .  A
N1238      O1241   1.262       .  A
C1243      C1244   1.417       .  A
C1243      C1248   1.400       .  A
C1243      H1250   1.084       .  S
C1244      C1245   1.411       .  A
C1245      C1246   1.403       .  A
C1245      N1252   1.428       .  S
C1246      C1247   1.406       .  A
C1246      H1251   1.085       .  S
C1247      C1248   1.399       .  A
C1248      N1249   1.429       .  S
N1249      O1253   1.262       .  A
N1249      O1254   1.262       .  A
N1252      O1256   1.262       .  A
N1252      O1255   1.262       .  A
C1257      C1258   1.402       .  A
C1257      C1262   1.402       .  A
C1257      H1264   1.087       .  S
C1258      C1259   1.417       .  A
C1259      C2796   1.402       .  A
C1259      N1266   1.425       .  S
C1260      C2795   1.405   1_455  A
C1260      C1261   1.397   1_455  A
C1260      H1265   1.087       .  S
C1261      C2798   1.412       .  A
C1262      C2797   1.416       .  A
C1262      N1263   1.429       .  S
N1263      O1267   1.262       .  A
N1263      O1268   1.262       .  A
N1266      O2806   1.261       .  A
N1266      O1269   1.262       .  A
O1270      N2802   1.261   1_455  A
C1271      C1272   1.399       .  A
C1271      C1276   1.404       .  A
C1271      H1278   1.086       .  S
C1272      C2379   1.476       .  S
C1272      C2809   1.416       .  A
C1273      C2808   1.409       .  A
C1273      C2810   1.392       .  A
C1273      N1280   1.429   1_655  S
C1274      C2809   1.391       .  A
C1274      C1275   1.399       .  A
C1274      H2815   1.086       .  S
C1275      C1276   1.420       .  A
C1276      N1277   1.428       .  S
N1277      O1281   1.262       .  A
N1277      O1282   1.262       .  A
H1279      C2810   1.086       .  S
N1280      O1284   1.262       .  A
N1280      O1283   1.262       .  A
C1285      C1286   1.399       .  A
C1285      C1290   1.402       .  A
C1285      H1292   1.087       .  S
C1287      N1294   1.429       .  S
C1288      C1289   1.403       .  A
C1289      C1290   1.420       .  A
C1290      N1291   1.429       .  S
N1291      O1295   1.262       .  A
N1291      O1296   1.262       .  A
N1294      O1298   1.262       .  A
N1294      O1297   1.262       .  A
C1299      C1300   1.404       .  A
C1299      C1304   1.404       .  A
C1300      C1301   1.412       .  A
C1301      C1302   1.397       .  A
C1301      N1308   1.429       .  S
C1302      C1303   1.403       .  A
C1302      H1307   1.088       .  S
C1303      C1304   1.413       .  A
C1304      N1305   1.428       .  S
N1305      O1309   1.262       .  A
N1305      O1310   1.262       .  A
N1308      O1312   1.262       .  A
C1313      C1314   1.404       .  A
C1313      C1318   1.398       .  A
C1313      H1320   1.086       .  S
C1314      C1315   1.409       .  A
C1315      C1316   1.404       .  A
C1315      N1322   1.428       .  S
C1316      C1317   1.408       .  A
C1316      H1321   1.084       .  S
C1317      C1318   1.411       .  A
C1318      N1319   1.429       .  S
N1319      O1323   1.262       .  A
N1319      O1324   1.261       .  A
N1322      O1326   1.262       .  A
N1322      O1325   1.262       .  A
C1327      C1328   1.407       .  A
C1327      C1332   1.397       .  A
C1327      H1334   1.088       .  S
C1329      N1336   1.428       .  S
C1330      C1331   1.405       .  A
C1330      H1335   1.089       .  S
C1331      C1332   1.407       .  A
C1332      N1333   1.428       .  S
N1333      O1337   1.262       .  A
N1333      O1338   1.262       .  A
N1336      O1340   1.262       .  A
N1336      O1339   1.262       .  A
C1341      C1342   1.401       .  A
C1341      C1346   1.394       .  A
C1341      H1348   1.087       .  S
C1342      C1343   1.413       .  A
C1343      C1344   1.403       .  A
C1343      N1350   1.429       .  S
C1344      C1345   1.406       .  A
C1344      H1349   1.086       .  S
C1345      C1346   1.409       .  A
C1346      N1347   1.423       .  S
N1347      O1351   1.260       .  A
N1347      O1352   1.262       .  A
N1350      O1354   1.262       .  A
N1350      O2889   1.262       .  A
O1353      N2886   1.262       .  A
C1355      C1356   1.391       .  A
C1355      C1360   1.394       .  A
C1355      H1362   1.084       .  S
C1356      C1357   1.414       .  A
C1357      C1358   1.405       .  A
C1357      N1364   1.432       .  S
C1358      C1359   1.406       .  A
C1358      H1363   1.083       .  S
C1359      C1360   1.424       .  A
C1360      N1361   1.429       .  S
N1361      O1365   1.262       .  A
N1361      O1366   1.262       .  A
N1364      O1368   1.262       .  A
N1364      O1367   1.263       .  A
C1369      C1370   1.408       .  A
C1369      C1374   1.403       .  A
C1369      H1376   1.086       .  S
C1370      C1371   1.411       .  A
C1371      C1372   1.397       .  A
C1371      N1378   1.429       .  S
C1372      C1373   1.409       .  A
C1372      H1377   1.087       .  S
C1373      C1374   1.408       .  A
C1374      N1375   1.424       .  S
N1375      O1379   1.260       .  A
N1375      O1380   1.262       .  A
N1378      O1382   1.262       .  A
N1378      O1381   1.262       .  A
C1383      C1384   1.397       .  A
C1383      H1390   1.083       .  S
C1384      C1385   1.416       .  A
C1385      C1386   1.408       .  A
C1385      N1392   1.430       .  S
C1386      C1387   1.406       .  A
C1386      H1391   1.082       .  S
C1388      N1389   1.428       .  S
N1389      O1393   1.261       .  A
N1389      O1394   1.262       .  A
N1392      O1396   1.262       .  A
N1392      O1395   1.262       .  A
C1397      C1398   1.402       .  A
C1397      C1402   1.403       .  A
C1397      H1404   1.087       .  S
C1398      C1399   1.411       .  A
C1399      C1400   1.396       .  A
C1399      N1406   1.429       .  S
C1402      N1403   1.428       .  S
N1403      O1407   1.262       .  A
N1406      O1410   1.262       .  A
N1406      O1409   1.262       .  A
C1411      C1412   1.396       .  A
C1411      C1416   1.403       .  A
C1411      H1418   1.084       .  S
C1413      N1420   1.430   1_545  S
C1414      C1415   1.407       .  A
C1415      C1416   1.420       .  A
C1416      N1417   1.428       .  S
N1417      O1421   1.262       .  A
N1417      O1422   1.262       .  A
N1420      O1424   1.262       .  A
N1420      O1423   1.262       .  A
C1425      C1426   1.404       .  A
C1425      C1430   1.405       .  A
C1425      H1432   1.089       .  S
C1426      C1427   1.423       .  A
C1427      C1428   1.400       .  A
C1427      N1434   1.430       .  S
C1428      C1429   1.399       .  A
C1428      H1433   1.089       .  S
C1429      C1430   1.414       .  A
C1430      N1431   1.427       .  S
N1431      O1435   1.262       .  A
N1431      O1436   1.261       .  A
N1434      O1438   1.262       .  A
N1434      O1437   1.262       .  A
C1439      C1440   1.403       .  A
C1439      C1444   1.405       .  A
C1439      H1446   1.086       .  S
C1440      C1441   1.412       .  A
C1441      C1442   1.403       .  A
C1441      N1448   1.426       .  S
C1442      C1443   1.401       .  A
C1442      H1447   1.086       .  S
C1443      C1444   1.414       .  A
C1444      N1445   1.429       .  S
N1445      O1449   1.262       .  A
N1445      O1450   1.262       .  A
N1448      O1452   1.262       .  A
N1448      O1451   1.262       .  A
C1453      C1454   1.400       .  A
C1453      C1458   1.399       .  A
C1453      H1460   1.086       .  S
C1454      C2307   1.485       .  S
C1454      C1455   1.415       .  A
C1455      C1456   1.408       .  A
C1455      N2998   1.427       .  S
C1456      C1457   1.404       .  A
C1456      H1461   1.086       .  S
C1457      C1458   1.414       .  A
C1458      N1459   1.428       .  S
N1459      O1463   1.261       .  A
N1459      O1464   1.262       .  A
N1462      C2991   1.426       .  S
N1462      O1466   1.261   1_655  A
N1462      O1465   1.262       .  A
C1467      C1468   1.406       .  A
C1467      C1472   1.409       .  A
C1467      H1474   1.088       .  S
C1468      C1469   1.413       .  A
C1469      C1470   1.400       .  A
C1469      N1476   1.427       .  S
C1470      C1471   1.400       .  A
C1470      H1475   1.088       .  S
C1471      C1472   1.415       .  A
C1472      N1473   1.429       .  S
N1473      O1477   1.262       .  A
N1473      O1478   1.262       .  A
N1476      O1480   1.261       .  A
N1476      O1479   1.261       .  A
C1481      C1482   1.408       .  A
C1481      C1486   1.402       .  A
C1481      H1488   1.086       .  S
C1482      C1483   1.416       .  A
C1483      C1484   1.400       .  A
C1483      N3026   1.425       .  S
C1484      C1485   1.401       .  A
C1484      H1489   1.087       .  S
C1485      C1486   1.413       .  A
C1486      N1487   1.429       .  S
N1487      O1491   1.262       .  A
N1487      O1492   1.262       .  A
N1490      C3019   1.426       .  S
N1490      O1494   1.260   1_655  A
N1490      O1493   1.262       .  A
C1495      C1496   1.410       .  A
C1495      C1500   1.397       .  A
C1495      H1502   1.087       .  S
C1496      C1497   1.407       .  A
C1497      C1498   1.398       .  A
C1497      N1504   1.427       .  S
C1498      C1499   1.409       .  A
C1498      H1503   1.087       .  S
C1499      C1500   1.407       .  A
C1500      N1501   1.429       .  S
N1501      O1505   1.262       .  A
N1501      O1506   1.262       .  A
N1504      O1508   1.262       .  A
N1504      O1507   1.261       .  A
C1509      C1510   1.398   1_554  A
C1509      C3050   1.391   1_554  A
C1509      H1516   1.086       .  S
C1510      C1511   1.419       .  A
C1511      C1512   1.409       .  A
C1511      N1518   1.429       .  S
C1512      C1513   1.404       .  A
C1512      H1517   1.085       .  S
C1513      C2313   1.479       .  S
C1513      C3050   1.412       .  A
C1514      C3045   1.390   1_556  A
C1514      C3049   1.415       .  A
C1514      N1515   1.430   1_656  S
N1515      O1519   1.261       .  A
N1515      O1520   1.261       .  A
N1518      O1522   1.262       .  A
N1518      O1521   1.262       .  A
C1523      C1524   1.411       .  A
C1523      C1528   1.405       .  A
C1523      H1530   1.087       .  S
C1524      C1525   1.411       .  A
C1525      C1526   1.401       .  A
C1525      N1532   1.427       .  S
C1526      C1527   1.407       .  A
C1526      H1531   1.087       .  S
C1527      C1528   1.410       .  A
C1528      N1529   1.428       .  S
N1529      O1533   1.261       .  A
N1529      O1534   1.262       .  A
N1532      O1536   1.262       .  A
N1532      O1535   1.261   1_554  A
O1537     Cr1555   1.948       .  S
O1537      C1545   1.251       .  A
O1538     Cr1555   2.027   1_554  S
O1538      C1539   1.273       .  A
C1539      O1540   1.262       .  A
O1540     Cr1556   1.963   1_554  S
O1541     Cr1556   2.031       .  S
C1542      O1543   1.257       .  A
C1542      C2250   1.484       .  S
O1544     Cr1557   2.041       .  S
O1544      C1545   1.270       .  A
O1546     Cr1555   2.028       .  S
O1546      C1554   1.270       .  A
O1547     Cr1555   1.964       .  S
O1547      C1548   1.254   1_556  A
C1548      O1549   1.268       .  A
C1548      C2292   1.493       .  S
O1549     Cr1556   2.031   1_554  S
O1550     Cr1556   1.973       .  S
O1550      C1551   1.262       .  A
C1551      O1552   1.276       .  A
C1551      C2236   1.486       .  S
O1552     Cr1557   2.036       .  S
O1553     Cr1557   1.938       .  S
O1553      C1554   1.253       .  A
C1554      C2267   1.482       .  S
Cr1555     O1558   1.776       .  S
Cr1556     O1558   1.778       .  S
Cr1557     O1558   1.769       .  S
O1559     Cr1577   1.954       .  S
O1559      C1567   1.251       .  A
O1560     Cr1577   2.031       .  S
O1560      C1561   1.274       .  A
C1561      O1562   1.261       .  A
C1561      C2169   1.483       .  S
O1562     Cr1578   1.961       .  S
O1563     Cr1578   2.018       .  S
O1563      C2332   1.268       .  A
C1564      O2331   1.269   1_545  A
C1564      O2333   1.255       .  A
C1564      C2253   1.487       .  S
O1565     Cr1579   1.975       .  S
O1565      C2332   1.255       .  A
O1566     Cr1579   2.011       .  S
O1566      C1567   1.262       .  A
C1567      C2948   1.466       .  S
O1568     Cr1577   2.032       .  S
O1568      C1576   1.273       .  A
O1569     Cr1577   1.977       .  S
O1569      C1570   1.255       .  A
C1570      O1571   1.266       .  A
C1570      C2197   1.490       .  S
O1571     Cr1578   2.018       .  S
O1572     Cr1578   1.976       .  S
O1572      C1573   1.262       .  A
C1573      O1574   1.270       .  A
C1573      C2208   1.477       .  S
O1574     Cr1579   2.023       .  S
O1575     Cr1579   1.937       .  S
O1575      C1576   1.254       .  A
C1576      C2264   1.480       .  S
Cr1577     O1580   1.779       .  S
Cr1578     O1580   1.771       .  S
Cr1579     O1580   1.778       .  S
O1581     Cr1599   1.946       .  S
O1581      C1589   1.251       .  A
O1582     Cr1599   2.054       .  S
O1582      C1583   1.280       .  A
C1583      O1584   1.262       .  A
C1583      C2082   1.486       .  S
O1584     Cr1600   1.959       .  S
O1585     Cr1600   2.014       .  S
O1585      C1586   1.264       .  A
C1586      O1587   1.258       .  A
C1586      C2113   1.486       .  S
O1587     Cr1601   1.979       .  S
O1588     Cr1601   2.049       .  S
O1588      C1589   1.272       .  A
C1589      C2141   1.495       .  S
O1590     Cr1599   2.044       .  S
O1590      C1598   1.276       .  A
O1591     Cr1599   1.965       .  S
O1591      C1592   1.251       .  A
C1592      O1593   1.263       .  A
C1592      C2152   1.484       .  S
O1593     Cr1600   2.017       .  S
O1594     Cr1600   1.975       .  S
O1594      C1595   1.265       .  A
C1595      O1596   1.279       .  A
C1595      C2099   1.494       .  S
O1596     Cr1601   2.051       .  S
O1597     Cr1601   1.945       .  S
O1597      C1598   1.254       .  A
C1598      C2127   1.493       .  S
Cr1599     O1602   1.774       .  S
Cr1600     O1602   1.773       .  S
Cr1601     O1602   1.774       .  S
O1603     Cr1621   1.945       .  S
O1603      C1611   1.251       .  A
O1604     Cr1621   2.030       .  S
O1604      C1605   1.274       .  A
C1605      O1606   1.260       .  A
C1605      C2029   1.481       .  S
O1606     Cr1622   1.974       .  S
O1607     Cr1622   2.016       .  S
C1608      O1609   1.256       .  A
C1608      C2110   1.484       .  S
O1610     Cr1623   2.014       .  S
O1610      C1611   1.264       .  A
O1612     Cr1621   2.017       .  S
O1612      C1620   1.270       .  A
O1613     Cr1621   1.967       .  S
O1613      C1614   1.252       .  A
C1614      O1615   1.267       .  A
C1614      C2057   1.487       .  S
O1615     Cr1622   2.020       .  S
O1616     Cr1622   1.984       .  S
O1616      C1617   1.265       .  A
C1617      O1618   1.273       .  A
C1617      C2071   1.480       .  S
O1618     Cr1623   2.020       .  S
O1619     Cr1623   1.950       .  S
O1619      C1620   1.256       .  A
C1620      C2124   1.465       .  S
Cr1621     O1624   1.770       .  S
Cr1622     O1624   1.769       .  S
Cr1623     O1624   1.768       .  S
O1625     Cr1643   1.994       .  S
O1625      C1633   1.262       .  A
O1626     Cr1643   2.007       .  S
O1626      C1627   1.269       .  A
C1627      O1628   1.268       .  A
C1627      C2864   1.498   1_545  S
O1628     Cr1644   2.001       .  S
O1629     Cr1644   1.984       .  S
O1629      C2398   1.260   1_545  A
C1630      O2397   1.261       .  A
C1630      O1631   1.258       .  A
C1630      C1998   1.478       .  S
O1631     Cr2413   1.975       .  S
O1632     Cr1645   2.003       .  S
O1632      C1633   1.267       .  A
C1633      C2822   1.484   1_545  S
O1634     Cr1643   2.017       .  S
O1634      C1642   1.270       .  A
O1635     Cr1643   2.002       .  S
O1635      C1636   1.259       .  A
C1636      O1637   1.261       .  A
C1636      C2043   1.486       .  S
O1637     Cr1644   1.975       .  S
O1638     Cr1644   2.012       .  S
O1638      C1639   1.268       .  A
C1639      O1640   1.267       .  A
C1639      C2225   1.487       .  S
O1640     Cr1645   1.999       .  S
O1641     Cr1645   1.979       .  S
O1641      C1642   1.259       .  A
C1642      C2012   1.487       .  S
Cr1643     O1646   1.776       .  S
Cr1644     O1646   1.767       .  S
Cr1645     O2399   1.973       .  S
Cr1645     O1646   1.767       .  S
O1647     Cr1665   1.994       .  S
O1647      C1655   1.264       .  A
O1648     Cr1665   1.988   1_556  S
O1648      C1649   1.267       .  A
C1649      O1650   1.268       .  A
C1649      C2211   1.485       .  S
O1650     Cr1666   2.010   1_556  S
O1651     Cr1666   1.994       .  S
O1651      C1652   1.261       .  A
C1652      O1653   1.256       .  A
C1652      C2001   1.476       .  S
O1653     Cr1667   1.962       .  S
O1654     Cr1667   2.017       .  S
O1654      C1655   1.268       .  A
C1655      C2295   1.492       .  S
O1656     Cr1665   2.006       .  S
O1656      C1664   1.268       .  A
O1657     Cr1665   1.999   1_556  S
O1657      C1658   1.258   1_556  A
C1658      O1659   1.260       .  A
C1658      C2278   1.491   1_554  S
O1659     Cr1666   1.978       .  S
O1660     Cr1666   2.011       .  S
O1660      C1661   1.268       .  A
C1661      O1662   1.269       .  A
C1661      C2026   1.496       .  S
O1662     Cr1667   1.998       .  S
O1663     Cr1667   1.976       .  S
O1663      C1664   1.258       .  A
C1664      C2015   1.478       .  S
Cr1665     O1668   1.771       .  S
Cr1666     O1668   1.773       .  S
Cr1667     O1668   1.770       .  S
O1669     Cr1687   1.990       .  S
O1669      C1677   1.255       .  A
O1670     Cr1687   1.994       .  S
O1670      C1671   1.269       .  A
C1671      O1672   1.274       .  A
C1671      C2239   1.484       .  S
O1672     Cr1688   2.016       .  S
O1673     Cr1688   2.000       .  S
O1673      C1674   1.264       .  A
C1674      O1675   1.252       .  A
C1674      C1970   1.469       .  S
O1675     Cr1689   1.955       .  S
O1676     Cr1689   2.011       .  S
O1676      C1677   1.265       .  A
C1677      C2194   1.495       .  S
O1678     Cr1687   1.996       .  S
O1678      C1686   1.270       .  A
O1679     Cr1687   1.992       .  S
O1679      C1680   1.254       .  A
C1680      O1681   1.258       .  A
C1680      C2183   1.491       .  S
O1681     Cr1688   2.000       .  S
O1682     Cr1688   1.985       .  S
O1682      C1683   1.263       .  A
C1683      O1684   1.266       .  A
C1683      C1956   1.474       .  S
O1684     Cr1689   1.990       .  S
O1685     Cr1689   1.987       .  S
O1685      C1686   1.261       .  A
C1686      C1987   1.479       .  S
Cr1687     O1690   1.781       .  S
Cr1688     O1690   1.780       .  S
Cr1689     O1690   1.778       .  S
O1691     Cr1709   1.996       .  S
O1691      C1699   1.260       .  A
O1692     Cr1709   1.992       .  S
O1692      C1693   1.266       .  A
C1693      O1694   1.269       .  A
C1693      C1914   1.476   1_655  S
O1694     Cr1710   2.010       .  S
O1695     Cr1710   1.985       .  S
C1696      O1697   1.256       .  A
C1696      C1973   1.467       .  S
O1698     Cr1711   2.004       .  S
O1698      C1699   1.267       .  A
O1700     Cr1709   2.005       .  S
O1700      C1708   1.270       .  A
O1701     Cr1709   2.005       .  S
O1701      C1702   1.259       .  A
C1702      O1703   1.259       .  A
C1702      C1942   1.485       .  S
O1703     Cr1710   1.991       .  S
O1704     Cr1710   1.997       .  S
O1704      C1705   1.263       .  A
C1705      O1706   1.265       .  A
C1705      C2166   1.480       .  S
O1706     Cr1711   1.994       .  S
O1707     Cr1711   1.975       .  S
O1707      C1708   1.257       .  A
C1708      C1984   1.477       .  S
Cr1709     O1712   1.773       .  S
Cr1710     O1712   1.774       .  S
Cr1711     O1712   1.765       .  S
O1713     Cr1731   2.005       .  S
O1713      C1721   1.266       .  A
O1714     Cr1731   1.984       .  S
O1714      C1715   1.264       .  A
C1715      O1716   1.271       .  A
C1715      C1844   1.480   1_655  S
O1716     Cr1732   2.011       .  S
O1717     Cr1732   1.985       .  S
C1718      O1719   1.256       .  A
C1718      C1858   1.459       .  S
O1720     Cr1733   2.014   1_455  S
O1720      C1721   1.267   1_455  A
O1722     Cr1731   1.986       .  S
O1722      C1730   1.260       .  A
O1723     Cr1731   1.999       .  S
O1723      C1724   1.260       .  A
C1724      O1725   1.259       .  A
C1724      C1903   1.493       .  S
O1725     Cr1732   1.986       .  S
O1726     Cr1732   2.008       .  S
O1726      C1727   1.269       .  A
C1727      O1728   1.269       .  A
C1727      C2085   1.495       .  S
O1728     Cr1733   1.999       .  S
O1729     Cr1733   1.987       .  S
O1729      C1730   1.260       .  A
C1730      C1875   1.458       .  S
Cr1731     O1734   1.776       .  S
Cr1732     O1734   1.761       .  S
Cr1733     O1734   1.776       .  S
O1735     Cr1753   2.003       .  S
O1735      C1743   1.265       .  A
O1736     Cr1753   1.979       .  S
O1736      C1737   1.262       .  A
C1737      O1738   1.267       .  A
C1737      C2836   1.478   1_545  S
O1738     Cr1754   2.007       .  S
O1739     Cr1754   1.967   1_565  S
O1739      C2508   1.259       .  A
C1740      O2507   1.261       .  A
C1740      O1741   1.255       .  A
C1740      C1861   1.478       .  S
O1741     Cr2523   1.982       .  S
O1742     Cr1755   2.007   1_565  S
O1742      C1743   1.268   1_565  A
C1743      C2923   1.490   1_545  S
O1744     Cr1753   1.984       .  S
O1744      C1752   1.262       .  A
O1745     Cr1753   2.001       .  S
O1745      C1746   1.263       .  A
C1746      O1747   1.261       .  A
C1746      C2138   1.495       .  S
O1747     Cr1754   1.991       .  S
O1748     Cr1754   2.005       .  S
O1748      C1749   1.266       .  A
C1749      O1750   1.270       .  A
C1749      C1833   1.489       .  S
O1750     Cr1755   2.009       .  S
O1751     Cr1755   1.990       .  S
O1751      C1752   1.258       .  A
C1752      C1872   1.458       .  S
Cr1753     O1756   1.769       .  S
Cr1754     O1756   1.768       .  S
Cr1755     O2509   1.985       .  S
Cr1755     O1756   1.773       .  S
O1757     Cr1775   1.946       .  S
O1757      C1765   1.251       .  A
O1758     Cr1775   2.040       .  S
O1758      C1759   1.277       .  A
C1759      O1760   1.263       .  A
C1759      C1959   1.491       .  S
O1760     Cr1776   1.955       .  S
O1761     Cr1776   2.036       .  S
O1761      C2530   1.269       .  A
C1762      O2529   1.269   1_545  A
C1762      O2531   1.255       .  A
C1762      C1805   1.466       .  S
O1763     Cr1777   1.964       .  S
O1763      C2530   1.254       .  A
O1764     Cr1777   2.040       .  S
O1764      C1765   1.268       .  A
C1765      C2713   1.491       .  S
O1766     Cr1775   2.042       .  S
O1766      C1774   1.276       .  A
O1767     Cr1775   1.971       .  S
O1767      C1768   1.254       .  A
C1768      O1769   1.266       .  A
C1768      C1931   1.491       .  S
O1769     Cr1776   2.023       .  S
O1770     Cr1776   1.976       .  S
O1770      C1771   1.261       .  A
C1771      O1772   1.276       .  A
C1771      C1847   1.477       .  S
O1772     Cr1777   2.033       .  S
O1773     Cr1777   1.926       .  S
O1773      C1774   1.249       .  A
C1774      C1816   1.484       .  S
Cr1775     O1778   1.763       .  S
Cr1776     O1778   1.766       .  S
Cr1777     O1778   1.766       .  S
O1779     Cr1797   1.979       .  S
O1779      C1787   1.260       .  A
O1780     Cr1797   2.008       .  S
O1780      C1781   1.267       .  A
C1781      O1782   1.269       .  A
C1781      C1830   1.505       .  S
O1782     Cr1798   2.005       .  S
O1783     Cr1798   1.992       .  S
O1783      C1784   1.263       .  A
C1784      O1785   1.256       .  A
C1784      C1802   1.470       .  S
O1785     Cr1799   1.977       .  S
O1786     Cr1799   2.031       .  S
O1786      C1787   1.271       .  A
C1787      C1900   1.497       .  S
O1788     Cr1797   2.007       .  S
O1788      C1796   1.271       .  A
O1789     Cr1797   2.004       .  S
O1789      C1790   1.262       .  A
C1790      O1791   1.260       .  A
C1790      C1889   1.496       .  S
O1791     Cr1798   1.990       .  S
O1792     Cr1798   1.991       .  S
O1792      C1793   1.263       .  A
C1793      O1794   1.271       .  A
C1793      C1917   1.491       .  S
O1794     Cr1799   2.001       .  S
O1795     Cr1799   1.988       .  S
O1795      C1796   1.260       .  A
C1796      C1819   1.486       .  S
Cr1797     O1800   1.768       .  S
Cr1798     O1800   1.769       .  S
Cr1799     O1800   1.771       .  S
C1801      C1802   1.397       .  A
C1801      C1806   1.399       .  A
C1801      H1808   1.085       .  S
C1802      C1803   1.418       .  A
C1803      C1804   1.396       .  A
C1803      N1810   1.430       .  S
C1804      C1805   1.394       .  A
C1804      H1809   1.086       .  S
C1805      C1806   1.413       .  A
C1806      N1807   1.428       .  S
N1807      O1811   1.262       .  A
N1807      O1812   1.262       .  A
N1810      O1814   1.262       .  A
N1810      O1813   1.261       .  A
C1815      C1816   1.396       .  A
C1815      C1820   1.401       .  A
C1815      H1822   1.085       .  S
C1816      C1817   1.422       .  A
C1817      C1818   1.399       .  A
C1817      N1824   1.432       .  S
C1818      C1819   1.399       .  A
C1818      H1823   1.084       .  S
C1819      C1820   1.423       .  A
C1820      N1821   1.429       .  S
N1821      O1825   1.262       .  A
N1821      O1826   1.261       .  A
N1824      O1828   1.262       .  A
N1824      O1827   1.263       .  A
C1829      C1830   1.409       .  A
C1829      C1834   1.401       .  A
C1829      H1836   1.086       .  S
C1830      C1831   1.419       .  A
C1831      C1832   1.409       .  A
C1831      N1838   1.424       .  S
C1832      C1833   1.402       .  A
C1832      H1837   1.087       .  S
C1833      C1834   1.413       .  A
C1834      N1835   1.430       .  S
N1835      O1839   1.262       .  A
N1835      O1840   1.262       .  A
N1838      O1842   1.262       .  A
N1838      O1841   1.261       .  A
C1843      C1844   1.401       .  A
C1843      H1850   1.089       .  S
C1845      C1846   1.397       .  A
C1845      N1852   1.428       .  S
C1846      C1847   1.396       .  A
C1846      H1851   1.088       .  S
C1847      C1848   1.414       .  A
C1848      N1849   1.429       .  S
N1849      O1854   1.262       .  A
N1852      O1856   1.262       .  A
N1852      O1855   1.262       .  A
C1857      C1858   1.395       .  A
C1857      C1862   1.399       .  A
C1857      H1864   1.088       .  S
C1858      C1859   1.407       .  A
C1859      C1860   1.389       .  A
C1859      N1866   1.428       .  S
C1860      C1861   1.400       .  A
C1860      H1865   1.087       .  S
C1861      C1862   1.421       .  A
C1862      N1863   1.429       .  S
N1863      O1867   1.262       .  A
N1863      O1868   1.262       .  A
N1866      O1870   1.261       .  A
N1866      O1869   1.262       .  A
C1871      C1872   1.396       .  A
C1871      C1876   1.395       .  A
C1871      H1878   1.087       .  S
C1872      C1873   1.409       .  A
C1873      C1874   1.393       .  A
C1873      N1880   1.425       .  S
C1874      C1875   1.396       .  A
C1874      H1879   1.087       .  S
C1875      C1876   1.410       .  A
C1876      N1877   1.426       .  S
N1877      O1881   1.261       .  A
N1877      O1882   1.261       .  A
N1880      O1884   1.262       .  A
N1880      O1883   1.262       .  A
C1885      H1892   1.087   1_455  S
C1886      C1887   1.413       .  A
C1887      C1888   1.410       .  A
C1887      N1894   1.427       .  S
C1888      C1889   1.411       .  A
C1888      H1893   1.086       .  S
C1889      C1890   1.412       .  A
C1890      N1891   1.428       .  S
N1891      O1896   1.261       .  A
N1894      O1898   1.262       .  A
N1894      O1897   1.262       .  A
C1899      C1900   1.411       .  A
C1899      C1904   1.393       .  A
C1899      H1906   1.086       .  S
C1900      C1901   1.412       .  A
C1901      C1902   1.411       .  A
C1901      N1908   1.427       .  S
C1902      C1903   1.413       .  A
C1902      H1907   1.086       .  S
C1903      C1904   1.410       .  A
C1904      N1905   1.430       .  S
N1905      O1909   1.262       .  A
N1905      O1910   1.262       .  A
N1908      O1912   1.262       .  A
N1908      O1911   1.262       .  A
C1913      C1914   1.397   1_655  A
C1913      H1920   1.087       .  S
C1915      C1916   1.402       .  A
C1915      N1922   1.428       .  S
C1916      C1917   1.404       .  A
C1916      H1921   1.081       .  S
C1917      C1918   1.421       .  A
C1918      N1919   1.431       .  S
N1919      O1924   1.261       .  A
N1922      O1926   1.262       .  A
N1922      O1925   1.262       .  A
C1927      C1928   1.400       .  A
C1927      C1932   1.402       .  A
C1927      H1934   1.088       .  S
C1928      C1929   1.419       .  A
C1929      C1930   1.402       .  A
C1930      C1931   1.402       .  A
C1930      H1935   1.088       .  S
C1931      C1932   1.417       .  A
C1932      N1933   1.428       .  S
N1933      O1937   1.262       .  A
N1933      O1938   1.262       .  A
N1936      O1940   1.262       .  A
N1936      O1939   1.262       .  A
C1941      C1942   1.409       .  A
C1941      C1946   1.411       .  A
C1941      H1948   1.087       .  S
C1942      C1943   1.407       .  A
C1943      C2712   1.393       .  A
C1943      N2718   1.430       .  S
C1944      C2711   1.395       .  A
C1944      C2713   1.408       .  A
C1944      H1949   1.087       .  S
C1945      C2533   1.495   1_545  S
C1945      C2712   1.410       .  A
C1945      C1946   1.413       .  A
C1946      N1947   1.428       .  S
N1947      O1951   1.262       .  A
N1947      O1952   1.262       .  A
N1950      C2711   1.429       .  S
N1950      O1954   1.262       .  A
N1950      O1953   1.262       .  A
C1955      C1956   1.404       .  A
C1955      C2728   1.404       .  A
C1955      H1962   1.088       .  S
C1956      C1957   1.407       .  A
C1957      C1958   1.396       .  A
C1957      N1964   1.430       .  S
C1958      C2727   1.408       .  A
C1958      H1963   1.088       .  S
C1959      C2726   1.409       .  A
C1959      C1960   1.414       .  A
C1960      C2723   1.406       .  A
C1960      N1961   1.428       .  S
N1961      O1965   1.262       .  A
N1961      O1966   1.262       .  A
N1964      O1968   1.262       .  A
N1964      O1967   1.262       .  A
C1969      C1970   1.401       .  A
C1969      C1974   1.397       .  A
C1969      H1976   1.088       .  S
C1970      C1971   1.412       .  A
C1971      C1972   1.402       .  A
C1971      N1978   1.429       .  S
C1972      C1973   1.401       .  A
C1972      H1977   1.088       .  S
C1973      C1974   1.409       .  A
C1974      N1975   1.429       .  S
N1975      O1979   1.262       .  A
N1975      O1980   1.262       .  A
N1978      O1982   1.262       .  A
N1978      O1981   1.262       .  A
C1983      C1984   1.395       .  A
C1983      C1988   1.398       .  A
C1983      H1990   1.087       .  S
C1984      C1985   1.421       .  A
C1985      C1986   1.395       .  A
C1985      N1992   1.429       .  S
C1986      C1987   1.395       .  A
C1986      H1991   1.087       .  S
C1987      C1988   1.420       .  A
C1988      N1989   1.427       .  S
N1989      O1993   1.262       .  A
N1989      O1994   1.261       .  A
N1992      O1996   1.261       .  A
N1992      O1995   1.262       .  A
C1997      C1998   1.411       .  A
C1997      C2002   1.398       .  A
C1997      H2004   1.087       .  S
C1998      C1999   1.406       .  A
C1999      C2000   1.393       .  A
C1999      N2006   1.428       .  S
C2000      C2001   1.409       .  A
C2000      H2005   1.087       .  S
C2001      C2002   1.406       .  A
C2002      N2003   1.429       .  S
N2003      O2007   1.262       .  A
N2003      O2008   1.262       .  A
N2006      O2010   1.262       .  A
N2006      O2009   1.262       .  A
C2011      C2012   1.416       .  A
C2011      C2016   1.401       .  A
C2011      H2018   1.083       .  S
C2012      C2013   1.407       .  A
C2013      C2014   1.400       .  A
C2013      N2020   1.428       .  S
C2014      C2015   1.409       .  A
C2014      H2019   1.084       .  S
C2015      C2016   1.402       .  A
C2016      N2017   1.430       .  S
N2017      O2021   1.262       .  A
N2017      O2022   1.262       .  A
N2020      O2024   1.262       .  A
N2020      O2023   1.262       .  A
C2025      C2026   1.404       .  A
C2025      C2030   1.404       .  A
C2025      H2032   1.087       .  S
C2026      C2027   1.420       .  A
C2027      N2034   1.426       .  S
C2028      C2029   1.396       .  A
C2028      H2033   1.087       .  S
C2030      N2031   1.429       .  S
N2031      O2035   1.262       .  A
N2031      O2036   1.262       .  A
N2034      O2037   1.262   1_655  A
C2039      C2040   1.398       .  A
C2039      C2044   1.405       .  A
C2039      H2046   1.086       .  S
C2041      N2048   1.430       .  S
C2042      C2043   1.401       .  A
C2043      C2044   1.421       .  A
C2044      N2045   1.428       .  S
N2045      O2049   1.262       .  A
N2045      O2050   1.262       .  A
N2048      O2052   1.262       .  A
N2048      O2051   1.262       .  A
C2053      C2054   1.402       .  A
C2053      C2058   1.404       .  A
C2053      H2060   1.087       .  S
C2054      C2401   1.487       .  S
C2054      C2823   1.419       .  A
C2055      C2822   1.415       .  A
C2055      C2824   1.396       .  A
C2055      N2062   1.429   1_565  S
C2056      C2823   1.398       .  A
C2056      C2057   1.400       .  A
C2056      H2829   1.087       .  S
C2057      C2058   1.418       .  A
C2058      N2059   1.429       .  S
N2059      O2063   1.262       .  A
N2059      O2064   1.262       .  A
H2061      C2824   1.086       .  S
N2062      O2066   1.262       .  A
N2062      O2065   1.262       .  A
C2067      C2068   1.405       .  A
C2067      C2072   1.405       .  A
C2067      H2842   1.088       .  S
C2068      C2505   1.483       .  S
C2068      C2069   1.413       .  A
C2069      C2070   1.396       .  A
C2069      N2076   1.428       .  S
C2070      C2071   1.400       .  A
C2070      H2075   1.088       .  S
C2071      C2072   1.413       .  A
C2072      N2073   1.428       .  S
N2073      O2077   1.262       .  A
N2073      O2078   1.262       .  A
H2074      C2835   1.088   1_545  S
N2076      O2080   1.261       .  A
N2076      O2847   1.262       .  A
O2079      N2844   1.262       .  A
C2081      C2082   1.405       .  A
C2081      C2086   1.402       .  A
C2081      H2088   1.087       .  S
C2082      C2083   1.409       .  A
C2083      C2084   1.406       .  A
C2083      N2090   1.428       .  S
C2084      C2085   1.410       .  A
C2084      H2089   1.086       .  S
C2085      C2086   1.413       .  A
C2086      N2087   1.428       .  S
N2087      O2091   1.262       .  A
N2087      O2092   1.262       .  A
N2090      O2094   1.262       .  A
N2090      O2093   1.262       .  A
C2095      C2096   1.406       .  A
C2095      C2100   1.404       .  A
C2095      H2102   1.089       .  S
C2096      C2395   1.494       .  S
C2096      C2865   1.411       .  A
C2097      C2864   1.415       .  A
C2097      C2866   1.409       .  A
C2097      N2104   1.427       .  S
C2098      C2865   1.407       .  A
C2098      C2099   1.408       .  A
C2098      H2103   1.088       .  S
C2099      C2100   1.413       .  A
C2100      N2101   1.429       .  S
N2101      O2105   1.262       .  A
N2101      O2106   1.262       .  A
N2104      O2108   1.262   1_565  A
N2104      O2107   1.262       .  A
C2109      C2110   1.403       .  A
C2109      C2114   1.394       .  A
C2109      H2116   1.083       .  S
C2110      C2111   1.412       .  A
C2111      C2112   1.404       .  A
C2111      N2118   1.429       .  S
C2112      C2113   1.409       .  A
C2112      H2117   1.082       .  S
C2113      C2114   1.409       .  A
C2114      N2115   1.423       .  S
N2115      O2119   1.261       .  A
N2115      O2120   1.262       .  A
N2118      O2122   1.262   1_655  A
C2123      C2124   1.389       .  A
C2123      C2128   1.393       .  A
C2123      H2130   1.084       .  S
C2124      C2125   1.408       .  A
C2125      C2126   1.409       .  A
C2125      N2132   1.430       .  S
C2126      C2127   1.409       .  A
C2126      H2131   1.082       .  S
C2127      C2128   1.424       .  A
C2128      N2129   1.428       .  S
N2129      O2133   1.262       .  A
N2129      O2134   1.261       .  A
N2132      O2136   1.261       .  A
N2132      O2135   1.262       .  A
C2137      C2138   1.409       .  A
C2137      C2142   1.405       .  A
C2137      H2144   1.086       .  S
C2138      C2139   1.413       .  A
C2139      C2140   1.401       .  A
C2139      N2146   1.429       .  S
C2140      C2141   1.410       .  A
C2140      H2145   1.087       .  S
C2141      C2142   1.409       .  A
C2142      N2143   1.423       .  S
N2143      O2147   1.260       .  A
N2143      O2148   1.262       .  A
N2146      O2150   1.262       .  A
N2146      O2149   1.262       .  A
C2151      C2152   1.395       .  A
C2151      C2924   1.397       .  A
C2151      H2158   1.084       .  S
C2152      C2153   1.415       .  A
C2153      C2154   1.410       .  A
C2153      N2160   1.430       .  S
C2154      C2155   1.407       .  A
C2154      H2159   1.082       .  S
C2155      C2511   1.495       .  S
C2155      C2924   1.421       .  A
C2156      C2919   1.396       .  A
C2156      C2923   1.416       .  A
C2156      N2157   1.426   1_565  S
N2157      O2161   1.260       .  A
N2157      O2162   1.262       .  A
N2160      O2164   1.262       .  A
N2160      O2163   1.262       .  A
C2165      C2166   1.403       .  A
C2165      C2170   1.404       .  A
C2165      H2172   1.086       .  S
C2166      C2167   1.412       .  A
C2167      C2168   1.398       .  A
C2167      N2174   1.429       .  S
C2168      C2937   1.402       .  A
C2168      H2941   1.087   1_545  S
C2169      C2936   1.404       .  A
C2169      C2938   1.413       .  A
C2170      C2937   1.412       .  A
C2170      N2171   1.428       .  S
N2171      O2175   1.262       .  A
N2171      O2944   1.262       .  A
H2173      C2936   1.087       .  S
N2174      O2178   1.262       .  A
N2174      O2177   1.262       .  A
O2176      N2939   1.262       .  A
C2179      C2180   1.395       .  A
C2179      C2184   1.401       .  A
C2179      H2186   1.084       .  S
C2180      C2335   1.466   1_545  S
C2180      C2949   1.406       .  A
C2181      C2948   1.405       .  A
C2181      C2950   1.401       .  A
C2181      N2188   1.430       .  S
C2182      C2949   1.404       .  A
C2182      C2183   1.408       .  A
C2182      H2955   1.083       .  S
C2183      C2184   1.420       .  A
C2184      N2185   1.428       .  S
N2185      O2189   1.262       .  A
N2185      O2190   1.262       .  A
H2187      C2950   1.084       .  S
N2188      O2192   1.262       .  A
N2188      O2191   1.262       .  A
C2193      C2194   1.403       .  A
C2193      C2198   1.405       .  A
C2193      H2200   1.089       .  S
C2194      C2195   1.423       .  A
C2195      C2196   1.400       .  A
C2195      N2202   1.430       .  S
C2196      C2197   1.400       .  A
C2196      H2201   1.089       .  S
C2197      C2198   1.417       .  A
C2198      N2199   1.428       .  S
N2199      O2203   1.261       .  A
N2199      O2204   1.261       .  A
N2202      O2206   1.262       .  A
N2202      O2205   1.262       .  A
C2207      C2208   1.400       .  A
C2207      C2212   1.401       .  A
C2207      H2214   1.087       .  S
C2208      C2209   1.410       .  A
C2209      C2210   1.403       .  A
C2209      N2216   1.428       .  S
C2210      C2211   1.405       .  A
C2210      H2215   1.087       .  S
C2211      C2212   1.415       .  A
C2212      N2213   1.428       .  S
N2213      O2217   1.262       .  A
N2213      O2218   1.262       .  A
N2216      O2220   1.262       .  A
N2216      O2219   1.262       .  A
C2221      C2222   1.400       .  A
C2221      C2226   1.399       .  A
C2221      H2228   1.086   1_655  S
C2222      C2223   1.415       .  A
C2223      C2224   1.409       .  A
C2224      C2225   1.405       .  A
C2224      H2229   1.086       .  S
C2225      C2226   1.414       .  A
C2226      N2227   1.428       .  S
N2227      O2231   1.261       .  A
N2227      O2232   1.262       .  A
N2230      O2234   1.262       .  A
N2230      O2233   1.262       .  A
C2235      C2236   1.405       .  A
C2235      C2240   1.407       .  A
C2235      H2242   1.088       .  S
C2236      C2237   1.414       .  A
C2237      C2238   1.401       .  A
C2237      N2244   1.428       .  S
C2238      C2239   1.401       .  A
C2238      H2243   1.088       .  S
C2239      C2240   1.414       .  A
C2240      N2241   1.429       .  S
N2241      O2245   1.262       .  A
N2241      O2246   1.262       .  A
N2244      O2248   1.260       .  A
N2244      O2247   1.260       .  A
C2249      C2250   1.402       .  A
C2249      C2254   1.399       .  A
C2249      H2256   1.087       .  S
C2250      C2251   1.413       .  A
C2251      C2252   1.398       .  A
C2252      C2253   1.403       .  A
C2252      H2257   1.087       .  S
C2253      C2254   1.417       .  A
C2254      N2255   1.428       .  S
N2255      O2259   1.262       .  A
N2255      O2260   1.262       .  A
N2258      O2262   1.261       .  A
N2258      O2261   1.262       .  A
C2263      C2264   1.410       .  A
C2263      C2268   1.399       .  A
C2263      H2270   1.087       .  S
C2264      C2265   1.405       .  A
C2265      C2266   1.395       .  A
C2265      N2272   1.426       .  S
C2266      C2267   1.409       .  A
C2266      H2271   1.087       .  S
C2267      C2268   1.408       .  A
C2268      N2269   1.429       .  S
N2269      O2273   1.262       .  A
N2269      O2274   1.262       .  A
N2272      O2276   1.262       .  A
N2272      O2275   1.262       .  A
C2277      C2278   1.398   1_554  A
C2277      H2284   1.081       .  S
C2278      C2279   1.419       .  A
C2279      C2280   1.412       .  A
C2279      N2286   1.429       .  S
C2280      C2281   1.405       .  A
C2280      H2285   1.083       .  S
C2282      N2283   1.430   1_556  S
N2283      O2287   1.261       .  A
N2283      O2288   1.262       .  A
N2286      O2290   1.262       .  A
N2286      O2289   1.262       .  A
C2291      C2292   1.411       .  A
C2291      C2296   1.407       .  A
C2291      H2298   1.087       .  S
C2292      C2293   1.409       .  A
C2293      C2294   1.399       .  A
C2293      N2300   1.426       .  S
C2294      C2295   1.408       .  A
C2294      H2299   1.087       .  S
C2295      C2296   1.411       .  A
C2296      N2297   1.428       .  S
N2297      O2301   1.262       .  A
N2297      O2302   1.262       .  A
N2300      O2304   1.262       .  A
N2300      O2303   1.261   1_554  A
O2305     Cr2323   1.949       .  S
O2305      C2313   1.251       .  A
O2306     Cr2323   2.023   1_554  S
O2306      C2307   1.271       .  A
C2307      O2308   1.262       .  A
O2308     Cr2324   1.971   1_554  S
O2309     Cr2324   2.028       .  S
C2310      O2311   1.258       .  A
C2310      C3018   1.493       .  S
O2312     Cr2325   2.032       .  S
O2312      C2313   1.268       .  A
O2314     Cr2323   2.024       .  S
O2314      C2322   1.268       .  A
O2315     Cr2323   1.968       .  S
O2315      C2316   1.255   1_556  A
C2316      O2317   1.269       .  A
C2316      C3060   1.498       .  S
O2317     Cr2324   2.031   1_554  S
O2318     Cr2324   1.981       .  S
O2318      C2319   1.263       .  A
C2319      O2320   1.273       .  A
C2319      C3004   1.487       .  S
O2320     Cr2325   2.028       .  S
O2321     Cr2325   1.942       .  S
O2321      C2322   1.255       .  A
C2322      C3035   1.479       .  S
Cr2323     O2326   1.780       .  S
Cr2324     O2326   1.779       .  S
Cr2325     O2326   1.770       .  S
O2327     Cr2345   1.952       .  S
O2327      C2335   1.251       .  A
O2328     Cr2345   2.027       .  S
O2328      C2329   1.272       .  A
C2329      O2330   1.260       .  A
C2329      C2937   1.478   1_565  S
O2330     Cr2346   1.962       .  S
O2331     Cr2346   2.020       .  S
C2332      C3021   1.484       .  S
O2333     Cr2347   1.968   1_545  S
O2334     Cr2347   2.017       .  S
O2334      C2335   1.264       .  A
O2336     Cr2345   2.030       .  S
O2336      C2344   1.273       .  A
O2337     Cr2345   1.977       .  S
O2337      C2338   1.257       .  A
C2338      O2339   1.269       .  A
C2338      C2965   1.494       .  S
O2339     Cr2346   2.023       .  S
O2340     Cr2346   1.975       .  S
O2340      C2341   1.262       .  A
C2341      O2342   1.271       .  A
C2341      C2976   1.481       .  S
O2342     Cr2347   2.024       .  S
O2343     Cr2347   1.939       .  S
O2343      C2344   1.254       .  A
C2344      C3032   1.479       .  S
Cr2345     O2348   1.776       .  S
Cr2346     O2348   1.770       .  S
Cr2347     O2348   1.777       .  S
O2349     Cr2367   1.951       .  S
O2349      C2357   1.252       .  A
O2350     Cr2367   2.051       .  S
O2350      C2351   1.279       .  A
C2351      O2352   1.261       .  A
C2351      C2850   1.487       .  S
O2352     Cr2368   1.955       .  S
O2353     Cr2368   2.016       .  S
O2353      C2354   1.265       .  A
C2354      O2355   1.258       .  A
C2354      C2881   1.483       .  S
O2355     Cr2369   1.974       .  S
O2356     Cr2369   2.041       .  S
O2356      C2357   1.270       .  A
C2357      C2909   1.487       .  S
O2358     Cr2367   2.042       .  S
O2358      C2366   1.276       .  A
O2359     Cr2367   1.966       .  S
O2359      C2360   1.251       .  A
C2360      O2361   1.263       .  A
C2360      C2920   1.485       .  S
O2361     Cr2368   2.013       .  S
O2362     Cr2368   1.979       .  S
O2362      C2363   1.264       .  A
C2363      O2364   1.276       .  A
C2363      C2867   1.485       .  S
O2364     Cr2369   2.045       .  S
O2365     Cr2369   1.943       .  S
O2365      C2366   1.254       .  A
C2366      C2895   1.497       .  S
Cr2367     O2370   1.773       .  S
Cr2368     O2370   1.771       .  S
Cr2369     O2370   1.771       .  S
O2371     Cr2389   1.942       .  S
O2371      C2379   1.248       .  A
O2372     Cr2389   2.030       .  S
O2372      C2373   1.274       .  A
C2373      O2374   1.257       .  A
C2373      C2797   1.480       .  S
O2374     Cr2390   1.965       .  S
O2375     Cr2390   2.015       .  S
C2376      O2377   1.257       .  A
C2376      C2878   1.480       .  S
O2378     Cr2391   2.028       .  S
O2378      C2379   1.267       .  A
O2380     Cr2389   2.027       .  S
O2380      C2388   1.273       .  A
O2381     Cr2389   1.966       .  S
O2381      C2382   1.253       .  A
C2382      O2383   1.269       .  A
C2382      C2825   1.489       .  S
O2383     Cr2390   2.024       .  S
O2384     Cr2390   1.978       .  S
O2384      C2385   1.264       .  A
C2385      O2386   1.276       .  A
C2385      C2839   1.486       .  S
O2386     Cr2391   2.027       .  S
O2387     Cr2391   1.943       .  S
O2387      C2388   1.255       .  A
C2388      C2892   1.471       .  S
Cr2389     O2392   1.764       .  S
Cr2390     O2392   1.767       .  S
Cr2391     O2392   1.765       .  S
O2393     Cr2411   1.991       .  S
O2393      C2401   1.260       .  A
O2394     Cr2411   2.009       .  S
O2394      C2395   1.271       .  A
C2395      O2396   1.269       .  A
O2396     Cr2412   2.005       .  S
O2397     Cr2412   1.989       .  S
C2398      O2399   1.257   1_565  A
C2398      C2766   1.475       .  S
O2400     Cr2413   2.006       .  S
O2400      C2401   1.268       .  A
O2402     Cr2411   2.021       .  S
O2402      C2410   1.270       .  A
O2403     Cr2411   1.984       .  S
O2403      C2404   1.255       .  A
C2404      O2405   1.262       .  A
C2404      C2811   1.482       .  S
O2405     Cr2412   1.985       .  S
O2406     Cr2412   2.010       .  S
O2406      C2407   1.267       .  A
C2407      O2408   1.268       .  A
C2407      C2993   1.488       .  S
O2408     Cr2413   2.002       .  S
O2409     Cr2413   1.982       .  S
O2409      C2410   1.260       .  A
C2410      C2780   1.489       .  S
Cr2411     O2414   1.780       .  S
Cr2412     O2414   1.771       .  S
Cr2413     O2414   1.769       .  S
O2415     Cr2433   1.996       .  S
O2415      C2423   1.264       .  A
O2416     Cr2433   1.990   1_556  S
O2416      C2417   1.267       .  A
C2417      O2418   1.267       .  A
C2417      C2979   1.479       .  S
O2418     Cr2434   2.011   1_556  S
O2419     Cr2434   1.991       .  S
O2419      C2420   1.261       .  A
C2420      O2421   1.256       .  A
C2420      C2769   1.473       .  S
O2421     Cr2435   1.962       .  S
O2422     Cr2435   2.017       .  S
O2422      C2423   1.268       .  A
C2423      C3063   1.492       .  S
O2424     Cr2433   2.006       .  S
O2424      C2432   1.267       .  A
O2425     Cr2433   1.994   1_556  S
O2425      C2426   1.258   1_556  A
C2426      O2427   1.259       .  A
C2426      C3046   1.485   1_554  S
O2427     Cr2434   1.973       .  S
O2428     Cr2434   2.011       .  S
O2428      C2429   1.268       .  A
C2429      O2430   1.269       .  A
C2429      C2794   1.498       .  S
O2430     Cr2435   1.999       .  S
O2431     Cr2435   1.982       .  S
O2431      C2432   1.259       .  A
C2432      C2783   1.484       .  S
Cr2433     O2436   1.769       .  S
Cr2434     O2436   1.771       .  S
Cr2435     O2436   1.767       .  S
O2437     Cr2455   1.991       .  S
O2437      C2445   1.254       .  A
O2438     Cr2455   1.991       .  S
O2438      C2439   1.269       .  A
C2439      O2440   1.276       .  A
C2439      C3007   1.483       .  S
O2440     Cr2456   2.019       .  S
O2441     Cr2456   1.989       .  S
O2441      C2442   1.261       .  A
C2442      O2443   1.254       .  A
C2442      C2738   1.462       .  S
O2443     Cr2457   1.957       .  S
O2444     Cr2457   2.010       .  S
O2444      C2445   1.265       .  A
C2445      C2962   1.491       .  S
O2446     Cr2455   1.985       .  S
O2446      C2454   1.269       .  A
O2447     Cr2455   1.998       .  S
O2447      C2448   1.255       .  A
C2448      O2449   1.255       .  A
C2448      C2951   1.489       .  S
O2449     Cr2456   1.989       .  S
O2450     Cr2456   1.989       .  S
O2450      C2451   1.264       .  A
C2451      O2452   1.265       .  A
C2451      C2724   1.477       .  S
O2452     Cr2457   1.990       .  S
O2453     Cr2457   1.981       .  S
O2453      C2454   1.261       .  A
C2454      C2755   1.468       .  S
Cr2455     O2458   1.781       .  S
Cr2456     O2458   1.778       .  S
Cr2457     O2458   1.777       .  S
O2459     Cr2477   2.000       .  S
O2459      C2467   1.262       .  A
O2460     Cr2477   1.994       .  S
O2460      C2461   1.266       .  A
C2461      O2462   1.271       .  A
C2461      C2682   1.494   1_655  S
O2462     Cr2478   2.006       .  S
O2463     Cr2478   1.987       .  S
C2464      O2465   1.256       .  A
C2464      C2741   1.462       .  S
O2466     Cr2479   1.998       .  S
O2466      C2467   1.267       .  A
O2468     Cr2477   1.993       .  S
O2468      C2476   1.266       .  A
O2469     Cr2477   2.002       .  S
O2469      C2470   1.261       .  A
C2470      O2471   1.259       .  A
C2470      C2710   1.490       .  S
O2471     Cr2478   1.990       .  S
O2472     Cr2478   2.000       .  S
O2472      C2473   1.263       .  A
C2473      O2474   1.265       .  A
C2473      C2934   1.481       .  S
O2474     Cr2479   1.995       .  S
O2475     Cr2479   1.969       .  S
O2475      C2476   1.256       .  A
C2476      C2752   1.467       .  S
Cr2477     O2480   1.774       .  S
Cr2478     O2480   1.769       .  S
Cr2479     O2480   1.765       .  S
O2481     Cr2499   1.999       .  S
O2481      C2489   1.262       .  A
O2482     Cr2499   1.990       .  S
O2482      C2483   1.269       .  A
C2483      O2484   1.271       .  A
C2483      C2612   1.485   1_655  S
O2484     Cr2500   2.010       .  S
O2485     Cr2500   1.974       .  S
C2486      O2487   1.255       .  A
C2486      C2626   1.452       .  S
O2488     Cr2501   2.027       .  S
O2488      C2489   1.267       .  A
O2490     Cr2499   1.997       .  S
O2490      C2498   1.266       .  A
O2491     Cr2499   1.995       .  S
O2491      C2492   1.256       .  A
C2492      O2493   1.259       .  A
C2492      C2671   1.497       .  S
O2493     Cr2500   1.999       .  S
O2494     Cr2500   1.992       .  S
O2494      C2495   1.265       .  A
C2495      O2496   1.268       .  A
C2495      C2853   1.488       .  S
O2496     Cr2501   2.002       .  S
O2497     Cr2501   1.989       .  S
O2497      C2498   1.263       .  A
C2498      C2643   1.463       .  S
Cr2499     O2502   1.775       .  S
Cr2500     O2502   1.771       .  S
Cr2501     O2502   1.782       .  S
O2503     Cr2521   1.997       .  S
O2503      C2511   1.264       .  A
O2504     Cr2521   1.984       .  S
O2504      C2505   1.264       .  A
C2505      O2506   1.267       .  A
O2506     Cr2522   2.004       .  S
O2507     Cr2522   1.977       .  S
C2508      O2509   1.257   1_565  A
C2508      C2629   1.471       .  S
O2510     Cr2523   2.017       .  S
O2510      C2511   1.272       .  A
O2512     Cr2521   1.996       .  S
O2512      C2520   1.265       .  A
O2513     Cr2521   1.996       .  S
O2513      C2514   1.261       .  A
C2514      O2515   1.259       .  A
C2514      C2906   1.494       .  S
O2515     Cr2522   1.992       .  S
O2516     Cr2522   1.998       .  S
O2516      C2517   1.265       .  A
C2517      O2518   1.273       .  A
C2517      C2601   1.504       .  S
O2518     Cr2523   2.017       .  S
O2519     Cr2523   1.982       .  S
O2519      C2520   1.255       .  A
C2520      C2640   1.462       .  S
Cr2521     O2524   1.770       .  S
Cr2522     O2524   1.770       .  S
Cr2523     O2524   1.775       .  S
O2525     Cr2543   1.941       .  S
O2525      C2533   1.251       .  A
O2526     Cr2543   2.035       .  S
O2526      C2527   1.274       .  A
C2527      O2528   1.262       .  A
C2527      C2727   1.487   1_565  S
O2528     Cr2544   1.957       .  S
O2529     Cr2544   2.024       .  S
C2530      C2573   1.477       .  S
O2531     Cr2545   1.953   1_545  S
O2532     Cr2545   2.050       .  S
O2532      C2533   1.271       .  A
O2534     Cr2543   2.041       .  S
O2534      C2542   1.274       .  A
O2535     Cr2543   1.962       .  S
O2535      C2536   1.254       .  A
C2536      O2537   1.267       .  A
C2536      C2699   1.481       .  S
O2537     Cr2544   2.016       .  S
O2538     Cr2544   1.980       .  S
O2538      C2539   1.262       .  A
C2539      O2540   1.274       .  A
C2539      C2615   1.482       .  S
O2540     Cr2545   2.027       .  S
O2541     Cr2545   1.918       .  S
O2541      C2542   1.247       .  A
C2542      C2584   1.473       .  S
Cr2543     O2546   1.763       .  S
Cr2544     O2546   1.763       .  S
Cr2545     O2546   1.767       .  S
O2547     Cr2565   1.985       .  S
O2547      C2555   1.260       .  A
O2548     Cr2565   2.002       .  S
O2548      C2549   1.266       .  A
C2549      O2550   1.272       .  A
C2549      C2598   1.494       .  S
O2550     Cr2566   2.013       .  S
O2551     Cr2566   1.991       .  S
O2551      C2552   1.259       .  A
C2552      O2553   1.258       .  A
C2552      C2570   1.477       .  S
O2553     Cr2567   1.971       .  S
O2554     Cr2567   2.030       .  S
O2554      C2555   1.269       .  A
C2555      C2668   1.501       .  S
O2556     Cr2565   2.009       .  S
O2556      C2564   1.272       .  A
O2557     Cr2565   2.014       .  S
O2557      C2558   1.263       .  A
C2558      O2559   1.258       .  A
C2558      C2657   1.500       .  S
O2559     Cr2566   1.986       .  S
O2560     Cr2566   2.010       .  S
O2560      C2561   1.268       .  A
C2561      O2562   1.269       .  A
C2561      C2685   1.492       .  S
O2562     Cr2567   1.998       .  S
O2563     Cr2567   1.989       .  S
O2563      C2564   1.261       .  A
C2564      C2587   1.484       .  S
Cr2565     O2568   1.773       .  S
Cr2566     O2568   1.779       .  S
Cr2567     O2568   1.770       .  S
C2569      C2570   1.401       .  A
C2569      C2574   1.391       .  A
C2569      H2576   1.087       .  S
C2570      C2571   1.412       .  A
C2571      C2572   1.406       .  A
C2571      N2578   1.428       .  S
C2572      C2573   1.406       .  A
C2572      H2577   1.086       .  S
C2573      C2574   1.409       .  A
C2574      N2575   1.426       .  S
N2575      O2579   1.260       .  A
N2575      O2580   1.261       .  A
N2578      O2582   1.261       .  A
N2578      O2581   1.262       .  A
C2583      C2584   1.392       .  A
C2583      C2588   1.399       .  A
C2583      H2590   1.085       .  S
C2584      C2585   1.418       .  A
C2585      C2586   1.401       .  A
C2585      N2592   1.434       .  S
C2586      C2587   1.401       .  A
C2586      H2591   1.084       .  S
C2587      C2588   1.423       .  A
C2588      N2589   1.429       .  S
N2589      O2593   1.262       .  A
N2589      O2594   1.261       .  A
N2592      O2596   1.262       .  A
N2592      O2595   1.263       .  A
C2597      C2598   1.399       .  A
C2597      C2602   1.400       .  A
C2597      H2604   1.087       .  S
C2598      C2599   1.416       .  A
C2599      C2600   1.411       .  A
C2599      N2606   1.427       .  S
C2600      C2601   1.407       .  A
C2600      H2605   1.086       .  S
C2601      C2602   1.424       .  A
C2602      N2603   1.429       .  S
N2603      O2607   1.262       .  A
N2603      O2608   1.262       .  A
N2606      O2610   1.261       .  A
N2606      O2609   1.261       .  A
C2611      C2612   1.402       .  A
C2611      H2618   1.088   1_455  S
C2613      C2614   1.397       .  A
C2613      N2620   1.427       .  S
C2614      C2615   1.398       .  A
C2614      H2619   1.088       .  S
C2615      C2616   1.415       .  A
C2616      N2617   1.429       .  S
N2617      O2622   1.262       .  A
N2620      O2624   1.261       .  A
N2620      O2623   1.262       .  A
C2625      C2626   1.394       .  A
C2625      C2630   1.394       .  A
C2625      H2632   1.088       .  S
C2626      C2627   1.406       .  A
C2627      C2628   1.388       .  A
C2627      N2634   1.428       .  S
C2628      C2629   1.401       .  A
C2628      H2633   1.088       .  S
C2629      C2630   1.417       .  A
C2630      N2631   1.428       .  S
N2631      O2635   1.262       .  A
N2631      O2636   1.262       .  A
N2634      O2638   1.261       .  A
N2634      O2637   1.262       .  A
C2639      C2640   1.396       .  A
C2639      C2644   1.397       .  A
C2639      H2646   1.086       .  S
C2640      C2641   1.411       .  A
C2641      C2642   1.395       .  A
C2641      N2648   1.427       .  S
C2642      C2643   1.397       .  A
C2642      H2647   1.086       .  S
C2643      C2644   1.411       .  A
C2644      N2645   1.425       .  S
N2645      O2649   1.260       .  A
N2645      O2650   1.261       .  A
N2648      O2652   1.262       .  A
N2648      O2651   1.262       .  A
C2653      H2660   1.086   1_455  S
C2654      C2655   1.416       .  A
C2655      C2656   1.412       .  A
C2655      N2662   1.428       .  S
C2656      C2657   1.411       .  A
C2656      H2661   1.086       .  S
C2657      C2658   1.414       .  A
C2658      N2659   1.429       .  S
N2659      O2664   1.262       .  A
N2662      O2666   1.262       .  A
N2662      O2665   1.262       .  A
C2667      C2668   1.412       .  A
C2667      C2672   1.397       .  A
C2667      H2674   1.086       .  S
C2668      C2669   1.413       .  A
C2669      C2670   1.411       .  A
C2669      N2676   1.429       .  S
C2670      C2671   1.414       .  A
C2670      H2675   1.086       .  S
C2671      C2672   1.409       .  A
C2672      N2673   1.428       .  S
N2673      O2677   1.261       .  A
N2673      O2678   1.262       .  A
N2676      O2680   1.262       .  A
N2676      O2679   1.261       .  A
C2681      C2682   1.405       .  A
C2681      H2688   1.088   1_455  S
C2683      C2684   1.406       .  A
C2683      N2690   1.428       .  S
C2684      C2685   1.403       .  A
C2684      H2689   1.086       .  S
C2685      C2686   1.413       .  A
C2686      N2687   1.429       .  S
N2687      O2692   1.262       .  A
N2690      O2694   1.261       .  A
N2690      O2693   1.262       .  A
C2695      C2696   1.398       .  A
C2695      C2700   1.397       .  A
C2695      H2702   1.088       .  S
C2696      C2697   1.416       .  A
C2697      C2698   1.397       .  A
C2698      C2699   1.401       .  A
C2698      H2703   1.088       .  S
C2699      C2700   1.416       .  A
C2700      N2701   1.428       .  S
N2701      O2705   1.262       .  A
N2701      O2706   1.262       .  A
N2704      O2708   1.262       .  A
N2704      O2707   1.262       .  A
C2709      C2710   1.409       .  A
C2709      C2714   1.408       .  A
C2709      H2716   1.087       .  S
C2710      C2711   1.411       .  A
C2712      H2717   1.087   1_545  S
C2713      C2714   1.412       .  A
C2714      N2715   1.427       .  S
N2715      O2719   1.261       .  A
N2715      O2720   1.261       .  A
N2718      O2722   1.262       .  A
N2718      O2721   1.262       .  A
C2723      C2724   1.405       .  A
C2723      H2730   1.087       .  S
C2724      C2725   1.406       .  A
C2725      C2726   1.397       .  A
C2725      N2732   1.430       .  S
C2726      H2731   1.087       .  S
C2727      C2728   1.414       .  A
C2728      N2729   1.428   1_545  S
N2729      O2733   1.262       .  A
N2729      O2734   1.262       .  A
N2732      O2736   1.261       .  A
N2732      O2735   1.261       .  A
C2737      C2738   1.398       .  A
C2737      C2742   1.394       .  A
C2737      H2744   1.087       .  S
C2738      C2739   1.411       .  A
C2739      C2740   1.400       .  A
C2739      N2746   1.429       .  S
C2740      C2741   1.400       .  A
C2740      H2745   1.087       .  S
C2741      C2742   1.409       .  A
C2742      N2743   1.429       .  S
N2743      O2747   1.262       .  A
N2743      O2748   1.262       .  A
N2746      O2750   1.262       .  A
N2746      O2749   1.262       .  A
C2751      C2752   1.393       .  A
C2751      C2756   1.393       .  A
C2751      H2758   1.086       .  S
C2752      C2753   1.419       .  A
C2753      C2754   1.392       .  A
C2753      N2760   1.429       .  S
C2754      C2755   1.394       .  A
C2754      H2759   1.086       .  S
C2755      C2756   1.418       .  A
C2756      N2757   1.427       .  S
N2757      O2761   1.262       .  A
N2757      O2762   1.261       .  A
N2760      O2764   1.262       .  A
N2760      O2763   1.262       .  A
C2765      C2766   1.410       .  A
C2765      C2770   1.395       .  A
C2765      H2772   1.087       .  S
C2766      C2767   1.406       .  A
C2767      C2768   1.393       .  A
C2767      N2774   1.429       .  S
C2768      C2769   1.409       .  A
C2768      H2773   1.087       .  S
C2769      C2770   1.405       .  A
C2770      N2771   1.429       .  S
N2771      O2775   1.262       .  A
N2771      O2776   1.262       .  A
N2774      O2778   1.262       .  A
N2774      O2777   1.262       .  A
C2779      C2780   1.414       .  A
C2779      C2784   1.402       .  A
C2779      H2786   1.084       .  S
C2780      C2781   1.407       .  A
C2781      C2782   1.402       .  A
C2781      N2788   1.427       .  S
C2782      C2783   1.410       .  A
C2782      H2787   1.085       .  S
C2783      C2784   1.404       .  A
C2784      N2785   1.429       .  S
N2785      O2789   1.262       .  A
N2785      O2790   1.262       .  A
N2788      O2792   1.262       .  A
N2788      O2791   1.262       .  A
C2793      C2794   1.405       .  A
C2793      C2798   1.404       .  A
C2793      H2800   1.087       .  S
C2794      C2795   1.422       .  A
C2795      N2802   1.428       .  S
C2796      C2797   1.396       .  A
C2796      H2801   1.087       .  S
C2798      N2799   1.429       .  S
N2799      O2803   1.262       .  A
N2799      O2804   1.262       .  A
N2802      O2805   1.262   1_655  A
C2807      C2808   1.395       .  A
C2807      C2812   1.400       .  A
C2807      H2814   1.087       .  S
C2809      N2816   1.430       .  S
C2810      C2811   1.401       .  A
C2811      C2812   1.423       .  A
C2812      N2813   1.429       .  S
N2813      O2817   1.262       .  A
N2813      O2818   1.261       .  A
N2816      O2820   1.262       .  A
N2816      O2819   1.262       .  A
C2821      C2822   1.401       .  A
C2821      C2826   1.405       .  A
C2821      H2828   1.087       .  S
C2823      N2830   1.429       .  S
C2824      C2825   1.400       .  A
C2825      C2826   1.420       .  A
C2826      N2827   1.429       .  S
N2827      O2831   1.262       .  A
N2827      O2832   1.262       .  A
N2830      O2834   1.262       .  A
N2830      O2833   1.262       .  A
C2835      C2836   1.401       .  A
C2835      C2840   1.403       .  A
C2836      C2837   1.411       .  A
C2837      C2838   1.398       .  A
C2837      N2844   1.428       .  S
C2838      C2839   1.404       .  A
C2838      H2843   1.087       .  S
C2839      C2840   1.416       .  A
C2840      N2841   1.428       .  S
N2841      O2845   1.262       .  A
N2841      O2846   1.261       .  A
N2844      O2848   1.262       .  A
C2849      C2850   1.408       .  A
C2849      C2854   1.401       .  A
C2849      H2856   1.086       .  S
C2850      C2851   1.409       .  A
C2851      C2852   1.405       .  A
C2851      N2858   1.428       .  S
C2852      C2853   1.408       .  A
C2852      H2857   1.084       .  S
C2853      C2854   1.410       .  A
C2854      N2855   1.429       .  S
N2855      O2859   1.261       .  A
N2855      O2860   1.262       .  A
N2858      O2862   1.262       .  A
N2858      O2861   1.262       .  A
C2863      C2864   1.409       .  A
C2863      C2868   1.401       .  A
C2863      H2870   1.085       .  S
C2865      N2872   1.427       .  S
C2866      C2867   1.405       .  A
C2866      H2871   1.085       .  S
C2867      C2868   1.408       .  A
C2868      N2869   1.428       .  S
N2869      O2873   1.262       .  A
N2869      O2874   1.262       .  A
N2872      O2876   1.262       .  A
N2872      O2875   1.262       .  A
C2877      C2878   1.399       .  A
C2877      C2882   1.390       .  A
C2877      H2884   1.090       .  S
C2878      C2879   1.414       .  A
C2879      C2880   1.402       .  A
C2879      N2886   1.429       .  S
C2880      C2881   1.405       .  A
C2880      H2885   1.091       .  S
C2881      C2882   1.409       .  A
C2882      N2883   1.421       .  S
N2883      O2887   1.261       .  A
N2883      O2888   1.262       .  A
N2886      O2890   1.262   1_655  A
C2891      C2892   1.389       .  A
C2891      C2896   1.393       .  A
C2891      H2898   1.085       .  S
C2892      C2893   1.412       .  A
C2893      C2894   1.407       .  A
C2893      N2900   1.431       .  S
C2894      C2895   1.408       .  A
C2894      H2899   1.084       .  S
C2895      C2896   1.427       .  A
C2896      N2897   1.428       .  S
N2897      O2901   1.262       .  A
N2897      O2902   1.262       .  A
N2900      O2904   1.262       .  A
N2900      O2903   1.262       .  A
C2905      C2906   1.407       .  A
C2905      C2910   1.402       .  A
C2905      H2912   1.086       .  S
C2906      C2907   1.413       .  A
C2907      C2908   1.402       .  A
C2907      N2914   1.428       .  S
C2908      C2909   1.406       .  A
C2908      H2913   1.087       .  S
C2909      C2910   1.407       .  A
C2910      N2911   1.421       .  S
N2911      O2915   1.261       .  A
N2911      O2916   1.262       .  A
N2914      O2918   1.262       .  A
N2914      O2917   1.262       .  A
C2919      C2920   1.397       .  A
C2919      H2926   1.083       .  S
C2920      C2921   1.416       .  A
C2921      C2922   1.409       .  A
C2921      N2928   1.430       .  S
C2922      C2923   1.406       .  A
C2922      H2927   1.082       .  S
C2924      N2925   1.427       .  S
N2925      O2929   1.260       .  A
N2925      O2930   1.262       .  A
N2928      O2932   1.262       .  A
N2928      O2931   1.262       .  A
C2933      C2934   1.404       .  A
C2933      C2938   1.405       .  A
C2933      H2940   1.086       .  S
C2934      C2935   1.411       .  A
C2935      C2936   1.399       .  A
C2935      N2942   1.429       .  S
C2938      N2939   1.428       .  S
N2939      O2943   1.262       .  A
N2942      O2946   1.262       .  A
N2942      O2945   1.262       .  A
C2947      C2948   1.397       .  A
C2947      C2952   1.403       .  A
C2947      H2954   1.085       .  S
C2949      N2956   1.430   1_545  S
C2950      C2951   1.407       .  A
C2951      C2952   1.419       .  A
C2952      N2953   1.428       .  S
N2953      O2957   1.262       .  A
N2953      O2958   1.262       .  A
N2956      O2960   1.262       .  A
N2956      O2959   1.262       .  A
C2961      C2962   1.399       .  A
C2961      C2966   1.404       .  A
C2961      H2968   1.089       .  S
C2962      C2963   1.420       .  A
C2963      C2964   1.401       .  A
C2963      N2970   1.430       .  S
C2964      C2965   1.402       .  A
C2964      H2969   1.089       .  S
C2965      C2966   1.420       .  A
C2966      N2967   1.429       .  S
N2967      O2971   1.262       .  A
N2967      O2972   1.261       .  A
N2970      O2974   1.262       .  A
N2970      O2973   1.262       .  A
C2975      C2976   1.403       .  A
C2975      C2980   1.402       .  A
C2975      H2982   1.088       .  S
C2976      C2977   1.412       .  A
C2977      C2978   1.401       .  A
C2977      N2984   1.427       .  S
C2978      C2979   1.400       .  A
C2978      H2983   1.089       .  S
C2979      C2980   1.412       .  A
C2980      N2981   1.428       .  S
N2981      O2985   1.262       .  A
N2981      O2986   1.262       .  A
N2984      O2988   1.262       .  A
N2984      O2987   1.261       .  A
C2989      C2990   1.401       .  A
C2989      C2994   1.400       .  A
C2989      H2996   1.086   1_655  S
C2990      C2991   1.416       .  A
C2991      C2992   1.409       .  A
C2992      C2993   1.403       .  A
C2992      H2997   1.086       .  S
C2993      C2994   1.414       .  A
C2994      N2995   1.427       .  S
N2995      O2999   1.261       .  A
N2995      O3000   1.262       .  A
N2998      O3002   1.261       .  A
N2998      O3001   1.262       .  A
C3003      C3004   1.405       .  A
C3003      C3008   1.406       .  A
C3003      H3010   1.088       .  S
C3004      C3005   1.414       .  A
C3005      C3006   1.401       .  A
C3005      N3012   1.427       .  S
C3006      C3007   1.400       .  A
C3006      H3011   1.088       .  S
C3007      C3008   1.413       .  A
C3008      N3009   1.428       .  S
N3009      O3013   1.262       .  A
N3009      O3014   1.262       .  A
N3012      O3016   1.260       .  A
N3012      O3015   1.261       .  A
C3017      C3018   1.408       .  A
C3017      C3022   1.402       .  A
C3017      H3024   1.086       .  S
C3018      C3019   1.415       .  A
C3019      C3020   1.398       .  A
C3020      C3021   1.401       .  A
C3020      H3025   1.087       .  S
C3021      C3022   1.413       .  A
C3022      N3023   1.429       .  S
N3023      O3027   1.262       .  A
N3023      O3028   1.262       .  A
N3026      O3030   1.261       .  A
N3026      O3029   1.262       .  A
C3031      C3032   1.410       .  A
C3031      C3036   1.401       .  A
C3031      H3038   1.087       .  S
C3032      C3033   1.405       .  A
C3033      C3034   1.392       .  A
C3033      N3040   1.424       .  S
C3034      C3035   1.405       .  A
C3034      H3039   1.087       .  S
C3035      C3036   1.409       .  A
C3036      N3037   1.429       .  S
N3037      O3041   1.262       .  A
N3037      O3042   1.262       .  A
N3040      O3044   1.262       .  A
N3040      O3043   1.261       .  A
C3045      C3046   1.397   1_554  A
C3045      H3052   1.082       .  S
C3046      C3047   1.418       .  A
C3047      C3048   1.408       .  A
C3047      N3054   1.429       .  S
C3048      C3049   1.403       .  A
C3048      H3053   1.084       .  S
C3050      N3051   1.430   1_556  S
N3051      O3055   1.261       .  A
N3051      O3056   1.262       .  A
N3054      O3058   1.262       .  A
N3054      O3057   1.262       .  A
C3059      C3060   1.412       .  A
C3059      C3064   1.408       .  A
C3059      H3066   1.087       .  S
C3060      C3061   1.412       .  A
C3061      C3062   1.400       .  A
C3061      N3068   1.427       .  S
C3062      C3063   1.407       .  A
C3062      H3067   1.087       .  S
C3063      C3064   1.412       .  A
C3064      N3065   1.429       .  S
N3065      O3069   1.261       .  A
N3065      O3070   1.262       .  A
N3068      O3072   1.262       .  A
N3068      O3071   1.261   1_554  A
