geometry optimzed in LAMMPS
_audit_creation_date              2020-12-01 
_audit_creation_method            'lammps2cif' 
_symmetry_space_group_name_H-M    'P1' 
_symmetry_Int_Tables_number       1 
_symmetry_cell_setting            triclinic 
loop_ 
_symmetry_equiv_pos_as_xyz 
  x,y,z 
_cell_length_a                    35.74764131 
_cell_length_b                    35.75609438636882 
_cell_length_c                    49.4593134660042 
_cell_angle_alpha                 90.23900014763849 
_cell_angle_beta                  89.85264072757327 
_cell_angle_gamma                 119.90768186793875 
loop_ 
_atom_site_label 
_atom_site_type_symbol 
_atom_site_fract_x 
_atom_site_fract_y 
_atom_site_fract_z 
_atom_site_charge 
O1          O  0.42586094  0.56769245  0.53688055    -0.81000
C2          C  0.49715380  0.62934208  0.64046899     0.98400
O3          O  0.46271036  0.62553028  0.63103940    -0.70100
O4          O  0.45554972  0.66433356  0.58785153    -0.73700
Al5        Al  0.43153855  0.60520028  0.59853377     1.49000
C6          C  0.45674540  0.67470232  0.56342698     0.93600
O7          O  0.54053219  0.65901006  0.55670457    -0.79900
O8          O  0.48436172  0.53199697  0.57078696    -0.73500
Al9        Al  0.48297053  0.61326605  0.54695455     1.90100
O10         O  0.55369715  0.61515007  0.58130323    -0.72500
O11         O  0.45290593  0.53404485  0.61865539    -0.72400
O12         O  0.51853323  0.61558506  0.62774678    -0.78000
O13         O  0.40083465  0.54820306  0.61219313    -0.76200
O14         O  0.47141381  0.59814662  0.58166271    -1.12400
O15         O  0.39278429  0.58421064  0.56884567    -0.71600
C16         C  0.39153904  0.56245705  0.54823987     0.99200
C17         C  0.56654521  0.65137603  0.57001245     0.95600
Al18       Al  0.50001630  0.57586875  0.59807253     1.55600
O19         O  0.46360860  0.65399142  0.54551731    -0.76200
C20         C  0.41464209  0.52539872  0.62266256     0.99700
C21         C  0.49401812  0.53957428  0.54607137     0.94600
O22         O  0.50484505  0.57628922  0.53697334    -0.81500
O23         O  0.87971436  0.79696961  0.64652408    -0.81000
C24         C  0.81354284  0.78612380  0.54178572     0.98400
O25         O  0.84659250  0.81752770  0.55197931    -0.70100
O26         O  0.84609391  0.85993969  0.59500679    -0.73700
Al27       Al  0.87558358  0.82958244  0.58522483     1.49000
C28         C  0.84360850  0.86891652  0.61932527     0.93600
O29         O  0.76323318  0.76520307  0.62122631    -0.79900
O30         O  0.83288363  0.70484393  0.61036200    -0.73500
Al31       Al  0.82169228  0.78131649  0.63452220     1.90100
O32         O  0.75910464  0.70962745  0.59940623    -0.72500
O33         O  0.86384197  0.74134531  0.56293535    -0.72400
O34         O  0.79365037  0.75009537  0.55359837    -0.78000
O35         O  0.91101468  0.80802927  0.57281960    -0.76200
O36         O  0.83755102  0.78064826  0.60051981    -1.12400
O37         O  0.91176376  0.84913500  0.61622176    -0.71600
C38         C  0.91381412  0.82777802  0.63594675     0.99200
C39         C  0.74220456  0.73225852  0.60575027     0.95600
Al40       Al  0.81422604  0.73037760  0.58304323     1.55600
O41         O  0.83662753  0.84111434  0.63707982    -0.76200
C42         C  0.90140952  0.77305387  0.56116836     0.99700
C43         C  0.82074910  0.70057266  0.63476695     0.94600
O44         O  0.80432916  0.72247176  0.64335672    -0.81500
O45         O  0.81801456  0.54217757  0.69835159    -0.81000
C46         C  0.82326758  0.48542813  0.80459872     0.98400
O47         O  0.83586361  0.52403160  0.79753017    -0.70100
O48         O  0.88944949  0.55186299  0.75750475    -0.73700
Al49       Al  0.83748500  0.55038529  0.76290695     1.49000
C50         C  0.90534682  0.54361775  0.73732256     0.93600
O51         O  0.82360123  0.44372412  0.71729581    -0.79900
O52         O  0.72545798  0.45533282  0.73981197    -0.73500
Al53       Al  0.81954193  0.49385220  0.71103692     1.90100
O54         O  0.76693720  0.41031947  0.74289554    -0.72500
O55         O  0.75117059  0.48872719  0.78674566    -0.72400
O56         O  0.80331785  0.45428867  0.78835360    -0.78000
O57         O  0.78783391  0.55467571  0.77146985    -0.76200
O58         O  0.80782701  0.50023652  0.74538339    -1.12400
O59         O  0.84525060  0.58723351  0.73214208    -0.71600
C60         C  0.83256694  0.57934958  0.70784154     0.99200
C61         C  0.79362829  0.40937137  0.72667823     0.95600
Al62       Al  0.76544517  0.45582473  0.76277495     1.55600
O63         O  0.88266084  0.52576640  0.71631200    -0.76200
C64         C  0.75948118  0.52734493  0.78691489     0.99700
C65         C  0.72389871  0.45350334  0.71448514     0.94600
O66         O  0.75718520  0.46104750  0.70050177    -0.81500
O67         O  0.15264430  0.71607405  0.81292703    -0.81000
C68         C  0.17505491  0.67889170  0.70732133     0.98400
O69         O  0.16003323  0.70336966  0.71406023    -0.70100
O70         O  0.10223849  0.67921597  0.75115820    -0.73700
Al71       Al  0.15614196  0.72761797  0.74839962     1.49000
C72         C  0.08423537  0.64479839  0.76421699     0.93600
O73         O  0.17099046  0.62672092  0.78676645    -0.79900
O74         O  0.26264972  0.74806236  0.77855896    -0.73500
Al75       Al  0.16375474  0.67496351  0.79644919     1.90100
O76         O  0.23435541  0.66470169  0.76949866    -0.72500
O77         O  0.24610158  0.75707798  0.72774769    -0.72400
O78         O  0.20000142  0.67254549  0.72253964    -0.78000
O79         O  0.20584347  0.78234128  0.74176534    -0.76200
O80         O  0.18304677  0.70391504  0.76541372    -1.12400
O81         O  0.14842912  0.75406883  0.77992071    -0.71600
C82         C  0.14834587  0.74697599  0.80489972     0.99200
C83         C  0.20752364  0.63144502  0.78184205     0.95600
Al84       Al  0.23126916  0.70994223  0.75102946     1.55600
O85         O  0.10410317  0.63903162  0.78361521    -0.76200
C86         C  0.23561795  0.78553976  0.72689502     0.99700
C87         C  0.25774287  0.73878295  0.80348500     0.94600
O88         O  0.22212066  0.70785217  0.81285068    -0.81500
O89         O  0.09707556  0.90999989  0.86864083    -0.81000
C90         C  0.16105336  0.96845609  0.97305398     0.98400
O91         O  0.12989473  0.96894886  0.96166953    -0.70100
O92         O  0.13370848  0.01157207  0.91743250    -0.73700
Al93       Al  0.10234198  0.95195662  0.92817757     1.49000
C94         C  0.13718475  0.02144350  0.89275049     0.93600
O95         O  0.21446943  0.99436530  0.89146571    -0.79900
O96         O  0.14438774  0.86683239  0.90608485    -0.73500
Al97       Al  0.15562851  0.95262231  0.87975375     1.90100
O98         O  0.21856331  0.94637129  0.91772106    -0.72500
O99         O  0.11116787  0.87435087  0.95158570    -0.72400
O100        O  0.18131341  0.95207425  0.96192102    -0.78000
O101        O  0.06550768  0.89570715  0.94107699    -0.76200
O102        O  0.14010071  0.93908119  0.91403442    -1.12400
O103        O  0.06673923  0.93505579  0.89691827    -0.71600
C104        C  0.06351784  0.90881090  0.87861833     0.99200
C105        C  0.23632337  0.98324646  0.90660570     0.95600
Al106      Al  0.16215726  0.91204444  0.93265288     1.55600
O107        O  0.14240007  0.99816631  0.87581127    -0.76200
C108        C  0.07396498  0.86969720  0.95288547     0.99700
C109        C  0.15530664  0.87319993  0.88155969     0.94600
O110        O  0.17221213  0.91077703  0.87228865    -0.81500
O111        O  0.54998264  0.13607110  0.98746606    -0.81000
C112        C  0.49333531  0.12901796  0.88049288     0.98400
O113        O  0.52678036  0.15937009  0.89120644    -0.70100
O114        O  0.52116479  0.20027214  0.93401644    -0.73700
Al115      Al  0.55190996  0.17043549  0.92600194     1.49000
C116        C  0.51430515  0.20731787  0.95798881     0.93600
O117        O  0.43448464  0.10166743  0.95923433    -0.79900
O118        O  0.50799033  0.04537696  0.94892983    -0.73500
Al119      Al  0.49299774  0.11965686  0.97354900     1.90100
O120        O  0.43419761  0.04862201  0.93666558    -0.72500
O121        O  0.54053256  0.08453443  0.90255735    -0.72400
O122        O  0.47105791  0.09331067  0.89245526    -0.78000
O123        O  0.58903983  0.14898957  0.91557802    -0.76200
O124        O  0.51190156  0.12093909  0.94008588    -1.12400
O125        O  0.58443667  0.18949163  0.95846786    -0.71600
C126        C  0.58482155  0.16722723  0.97814128     0.99200
C127        C  0.41453453  0.06796434  0.94425966     0.95600
Al128      Al  0.49020015  0.07182877  0.92171894     1.55600
O129        O  0.50570681  0.17889906  0.97568395    -0.76200
C130        C  0.57872700  0.11514142  0.90222383     0.99700
C131        C  0.49493289  0.04001791  0.97318436     0.94600
O132        O  0.47746623  0.06096940  0.98186307    -0.81500
O133        O  0.15773351  0.20846668  0.36669474    -0.81000
C134        C  0.15247449  0.14827578  0.47210430     0.98400
O135        O  0.16727779  0.18748480  0.46565102    -0.70100
O136        O  0.22210540  0.21448447  0.42685936    -0.73700
Al137      Al  0.17120983  0.21539457  0.43169343     1.49000
C138        C  0.23735305  0.20278961  0.40798261     0.93600
O139        O  0.15063663  0.10404911  0.38714439    -0.79900
O140        O  0.05822507  0.12859398  0.40599839    -0.73500
Al141      Al  0.15294051  0.15757253  0.38004557     1.90100
O142        O  0.09094075  0.07607361  0.40979566    -0.72500
O143        O  0.08279213  0.15731415  0.45447330    -0.72400
O144        O  0.12968739  0.11763907  0.45592299    -0.78000
O145        O  0.12332508  0.22316086  0.44025896    -0.76200
O146        O  0.14003934  0.16584526  0.41373888    -1.12400
O147        O  0.18113995  0.25253642  0.40122984    -0.71600
C148        C  0.17141476  0.24537785  0.37648316     0.99200
C149        C  0.11610151  0.07149198  0.39411198     0.95600
Al150      Al  0.09457028  0.12347431  0.43005166     1.55600
O151        O  0.21507843  0.18413745  0.38705090    -0.76200
C152        C  0.09308698  0.19637703  0.45493712     0.99700
C153        C  0.05793708  0.12460493  0.38067303     0.94600
O154        O  0.09142621  0.12943896  0.36798716    -0.81500
O155        O  0.46877346  0.36958077  0.48096900    -0.81000
C156        C  0.49009140  0.31713875  0.38078753     0.98400
O157        O  0.47034296  0.33459376  0.39117237    -0.70100
O158        O  0.42845116  0.33620701  0.43422200    -0.73700
Al159      Al  0.48598551  0.37243445  0.42137095     1.49000
C160        C  0.41162975  0.29756352  0.44252274     0.93600
O161        O  0.50255564  0.28478078  0.47895508    -0.79900
O162        O  0.57850784  0.34901906  0.45971935    -0.73500
Al163      Al  0.48817141  0.32941740  0.47409941     1.90100
O164        O  0.51347690  0.27234826  0.43764049    -0.72500
O165        O  0.58296401  0.38876589  0.41446211    -0.72400
O166        O  0.51986523  0.31527244  0.39307661    -0.78000
O167        O  0.53821041  0.41155062  0.40443641    -0.76200
O168        O  0.50678491  0.34479315  0.44039478    -1.12400
O169        O  0.50027280  0.41581285  0.44885322    -0.71600
C170        C  0.48502187  0.40758208  0.47248347     0.99200
C171        C  0.50858841  0.26182581  0.46221944     0.95600
Al172      Al  0.54536360  0.33224670  0.42731550     1.55600
O173        O  0.43168999  0.28722676  0.45973227    -0.76200
C174        C  0.57500044  0.41531529  0.40279175     0.99700
C175        C  0.57967161  0.37426109  0.47818120     0.94600
O176        O  0.54514351  0.37231069  0.48714655    -0.81500
O177        O  0.76653582  0.24417985  0.20381614    -0.81000
C178        C  0.83749728  0.30884428  0.30631359     0.98400
O179        O  0.80668343  0.31035518  0.29517987    -0.70100
O180        O  0.80597316  0.34893676  0.25007556    -0.73700
Al181      Al  0.77604193  0.29028436  0.26272459     1.49000
C182        C  0.80777614  0.35706004  0.22519152     0.93600
O183        O  0.88390789  0.33160302  0.22231646    -0.79900
O184        O  0.81958679  0.20553905  0.23936165    -0.73500
Al185      Al  0.82526839  0.28835918  0.21285474     1.90100
O186        O  0.89187289  0.28702291  0.24992816    -0.72500
O187        O  0.78646686  0.21230143  0.28511304    -0.72400
O188        O  0.85599332  0.29069493  0.29518795    -0.78000
O189        O  0.74108173  0.23539068  0.27786416    -0.76200
O190        O  0.81269011  0.27667169  0.24769748    -1.12400
O191        O  0.73728298  0.26992502  0.23261893    -0.71600
C192        C  0.73338930  0.24307604  0.21444931     0.99200
C193        C  0.90753595  0.32241487  0.23708398     0.95600
Al194      Al  0.83658504  0.25095263  0.26576419     1.55600
O195        O  0.81037240  0.33200367  0.20855152    -0.76200
C196        C  0.74985843  0.20861834  0.28825814     0.99700
C197        C  0.83081658  0.21200626  0.21490256     0.94600
O198        O  0.84401080  0.24870200  0.20522615    -0.81500
O199        O  0.22053544  0.46382024  0.31304903    -0.81000
C200        C  0.14787607  0.44440953  0.20934209     0.98400
O201        O  0.18518987  0.47348787  0.21640587    -0.70100
O202        O  0.19265321  0.52381180  0.25721570    -0.73700
Al203      Al  0.21671597  0.48771962  0.24929246     1.49000
C204        C  0.18797711  0.53407901  0.28084567     0.93600
O205        O  0.10416576  0.43141340  0.28827185    -0.79900
O206        O  0.16992697  0.36696660  0.27819014    -0.73500
Al207      Al  0.16301513  0.44763866  0.30073129     1.90100
O208        O  0.09697341  0.37231100  0.27055468    -0.72500
O209        O  0.19412976  0.39684008  0.22853685    -0.72400
O210        O  0.12646785  0.41046923  0.22316826    -0.78000
O211        O  0.24800495  0.46017322  0.23856039    -0.76200
O212        O  0.17684718  0.44240531  0.26691688    -1.12400
O213        O  0.25458318  0.50855343  0.27917705    -0.71600
C214        C  0.25513771  0.49137579  0.30135824     0.99200
C215        C  0.08140079  0.39649466  0.27497292     0.95600
Al216      Al  0.14912935  0.39060288  0.25134835     1.55600
O217        O  0.17851777  0.50725648  0.29963575    -0.76200
C218        C  0.23317297  0.42485003  0.22620982     0.99700
C219        C  0.16100138  0.36598560  0.30308957     0.94600
O220        O  0.14659741  0.38973194  0.31185844    -0.81500
O221        O  0.80575040  0.04145538  0.15110244    -0.81000
C222        C  0.82343104  0.99080855  0.04919689     0.98400
O223        O  0.80305749  0.00676843  0.06071037    -0.70100
O224        O  0.76356772  0.00876264  0.10511677    -0.73700
Al225      Al  0.82009317  0.04487868  0.09103270     1.49000
C226        C  0.74748873  0.96996644  0.11284946     0.93600
O227        O  0.83981698  0.95770903  0.14636056    -0.79900
O228        O  0.91521059  0.02266089  0.12698552    -0.73500
Al229      Al  0.82506828  0.00179925  0.14302257     1.90100
O230        O  0.84996149  0.94644284  0.10455583    -0.72500
O231        O  0.91765605  0.06354146  0.08272345    -0.72400
O232        O  0.85468799  0.99031925  0.06054066    -0.78000
O233        O  0.87104690  0.08410654  0.07311202    -0.76200
O234        O  0.84231701  0.01779985  0.10912079    -1.12400
O235        O  0.83564375  0.08785288  0.11875265    -0.71600
C236        C  0.82189838  0.07946732  0.14273248     0.99200
C237        C  0.84528200  0.93523499  0.12901498     0.95600
Al238      Al  0.88105362  0.00649996  0.09487972     1.55600
O239        O  0.76828848  0.95950114  0.12933467    -0.76200
C240        C  0.90825333  0.08904584  0.07107026     0.99700
C241        C  0.91664374  0.04728542  0.14596755     0.94600
O242        O  0.88222790  0.04467331  0.15561685    -0.81500
O243        O  0.49324937  0.88108742  0.03726377    -0.81000
C244        C  0.49009233  0.82731058  0.14492593     0.98400
O245        O  0.50667270  0.86642721  0.13752363    -0.70100
O246        O  0.55973842  0.88972757  0.09772654    -0.73700
Al247      Al  0.50999817  0.89262778  0.10253564     1.49000
C248        C  0.57393322  0.87673191  0.07900301     0.93600
O249        O  0.48664055  0.77770505  0.06238041    -0.79900
O250        O  0.39493751  0.80642702  0.07770226    -0.73500
Al251      Al  0.48893026  0.83078808  0.05257405     1.90100
O252        O  0.42669570  0.75251957  0.08476910    -0.72500
O253        O  0.42098052  0.83852106  0.12598452    -0.72400
O254        O  0.46517669  0.79646381  0.12955723    -0.78000
O255        O  0.46400738  0.90329288  0.11111347    -0.76200
O256        O  0.47710053  0.84220486  0.08587029    -1.12400
O257        O  0.51905804  0.92750945  0.07070688    -0.71600
C258        C  0.50759114  0.91877132  0.04619304     0.99200
C259        C  0.45221411  0.74596790  0.07062991     0.95600
Al260      Al  0.43103766  0.80198072  0.10292191     1.55600
O261        O  0.55102267  0.85770080  0.05845800    -0.76200
C262        C  0.43363894  0.87813991  0.12626146     0.99700
C263        C  0.39389274  0.79735046  0.05294831     0.94600
O264        O  0.42746353  0.80100698  0.04109874    -0.81500
O265        O  0.59144378  0.05702365  0.47807158    -0.81000
C266        C  0.64602400  0.12464904  0.37746087     0.98400
O267        O  0.62835266  0.08795605  0.38833372    -0.70100
O268        O  0.62448582  0.04650264  0.43288857    -0.73700
Al269      Al  0.58928715  0.06723321  0.41798380     1.49000
C270        C  0.66385870  0.06941043  0.43921150     0.93600
O271        O  0.67614689  0.17547949  0.47376382    -0.79900
O272        O  0.60857338  0.18413682  0.45263493    -0.73500
Al273      Al  0.63205398  0.11622686  0.46986426     1.90100
O274        O  0.68685696  0.19759085  0.43237324    -0.72500
O275        O  0.57095467  0.14582240  0.40773830    -0.72400
O276        O  0.64609207  0.15648320  0.38845426    -0.78000
O277        O  0.55042752  0.07833846  0.39940790    -0.76200
O278        O  0.61595677  0.11701225  0.43604321    -1.12400
O279        O  0.54566009  0.04000165  0.44510736    -0.71600
C280        C  0.55374932  0.03411477  0.46900071     0.99200
C281        C  0.69768853  0.20439957  0.45687089     0.95600
Al282      Al  0.62728925  0.16679820  0.42153013     1.55600
O283        O  0.67503888  0.10122848  0.45564503    -0.76200
C284        C  0.54535957  0.11034067  0.39670998     0.99700
C285        C  0.58555339  0.16224034  0.47239320     0.94600
O286        O  0.58918892  0.13122620  0.48245383    -0.81500
O287        O  0.73803709  0.90971926  0.36830895    -0.81000
C288        C  0.81421831  0.97267556  0.46814734     0.98400
O289        O  0.77637509  0.95470981  0.45880510    -0.70100
O290        O  0.73620826  0.95442496  0.41425981    -0.73700
Al291      Al  0.75168258  0.91452015  0.42932045     1.49000
C292        C  0.75711506  0.98861518  0.40028457     0.93600
O293        O  0.85755701  0.98723162  0.36816918    -0.79900
O294        O  0.86461404  0.92404364  0.39351886    -0.73500
Al295      Al  0.79780586  0.94645196  0.37460734     1.90100
O296        O  0.88023068  0.00562979  0.40928342    -0.72500
O297        O  0.82851574  0.89418106  0.44014651    -0.72400
O298        O  0.84432786  0.97214695  0.45542151    -0.78000
O299        O  0.76060800  0.87320407  0.44812040    -0.76200
O300        O  0.79987511  0.93642306  0.40971055    -1.12400
O301        O  0.71855182  0.86870834  0.40353862    -0.71600
C302        C  0.71313809  0.87424247  0.37903288     0.99200
C303        C  0.88581394  0.01275949  0.38430143     0.95600
Al304      Al  0.85020196  0.94820289  0.42342526     1.55600
O305        O  0.78688416  0.99326950  0.38380892    -0.76200
C306        C  0.79301597  0.86845290  0.45109962     0.99700
C307        C  0.83990605  0.89649684  0.37631294     0.94600
O308        O  0.80817518  0.89872430  0.36610938    -0.81500
O309        O  0.08211976  0.56827249  0.03540840    -0.81000
C310        C  0.16270733  0.64633187  0.13124763     0.98400
O311        O  0.12333480  0.61551817  0.13076060    -0.70100
O312        O  0.07735143  0.62318975  0.09350764    -0.73700
Al313      Al  0.08827226  0.57879402  0.10038483     1.49000
C314        C  0.08572445  0.65020846  0.07518217     0.93600
O315        O  0.18699361  0.66970612  0.04769580    -0.79900
O316        O  0.17477724  0.55892225  0.07034016    -0.73500
Al317      Al  0.13412385  0.61611722  0.04490326     1.90100
O318        O  0.22364614  0.64391361  0.06646879    -0.72500
O319        O  0.15903552  0.56441091  0.12105443    -0.72400
O320        O  0.18958967  0.64881322  0.11360799    -0.78000
O321        O  0.09087793  0.52905786  0.11154223    -0.76200
O322        O  0.13407336  0.59937029  0.07870448    -1.12400
O323        O  0.04740266  0.54112641  0.07329547    -0.71600
C324        C  0.04941331  0.54068271  0.04771471     0.99200
C325        C  0.22262942  0.67267049  0.05268666     0.95600
Al326      Al  0.18225570  0.60375208  0.09166151     1.55600
O327        O  0.10626410  0.65024208  0.05406909    -0.76200
C328        C  0.12265149  0.53140582  0.12372784     0.99700
C329        C  0.17037013  0.55625647  0.04500106     0.94600
O330        O  0.16143568  0.58179741  0.03165480    -0.81500
O331        O  0.92108691  0.72575664  0.14567348    -0.81000
C332        C  0.97205634  0.79143191  0.04379098     0.98400
O333        O  0.95304373  0.75476714  0.05472599    -0.70100
O334        O  0.95208092  0.71396606  0.09876099    -0.73700
Al335      Al  0.91608993  0.73544648  0.08552492     1.49000
C336        C  0.99059514  0.73455755  0.10751692     0.93600
O337        O  0.00684777  0.84339427  0.14038198    -0.79900
O338        O  0.94163567  0.85434614  0.12034741    -0.73500
Al339      Al  0.96165212  0.78428092  0.13705594     1.90100
O340        O  0.01813730  0.86427870  0.09875104    -0.72500
O341        O  0.90217913  0.81687956  0.07580480    -0.72400
O342        O  0.97486975  0.82423517  0.05519952    -0.78000
O343        O  0.87660125  0.74820639  0.06814027    -0.76200
O344        O  0.94529007  0.78525199  0.10325037    -1.12400
O345        O  0.87361144  0.70884182  0.11399621    -0.71600
C346        C  0.88279600  0.70335150  0.13776179     0.99200
C347        C  0.02861828  0.87188343  0.12323794     0.95600
Al348      Al  0.95821125  0.83561574  0.08874713     1.55600
O349        O  0.00241977  0.76704471  0.12343439    -0.76200
C350        C  0.87421909  0.78189940  0.06536045     0.99700
C351        C  0.91754942  0.83222403  0.13971867     0.94600
O352        O  0.91996845  0.80053246  0.14966303    -0.81500
O353        O  0.72746183  0.48471354  0.20211329    -0.81000
C354        C  0.66603296  0.48797433  0.30675002     0.98400
O355        O  0.66685536  0.45683492  0.29539797    -0.70100
O356        O  0.62858579  0.41380011  0.25083247    -0.73700
Al357      Al  0.68779029  0.44815302  0.26260653     1.49000
C358        C  0.61892020  0.40668495  0.22613899     0.93600
O359        O  0.63581910  0.50681765  0.22309888    -0.79900
O360        O  0.76254094  0.57692117  0.23754129    -0.73500
Al361      Al  0.68142225  0.49532094  0.21264403     1.90100
O362        O  0.67887560  0.56147239  0.24996209    -0.72500
O363        O  0.76111147  0.54007194  0.28383802    -0.72400
O364        O  0.68069387  0.52409883  0.29526903    -0.78000
O365        O  0.74424840  0.47291248  0.27758282    -0.76200
O366        O  0.69594429  0.49655837  0.24730017    -1.12400
O367        O  0.70969219  0.43257738  0.23220761    -0.71600
C368        C  0.73276598  0.45523441  0.21266732     0.99200
C369        C  0.64326345  0.53944064  0.23763025     0.95600
Al370      Al  0.71895668  0.54659125  0.26495482     1.55600
O371        O  0.64070079  0.43544340  0.20924056    -0.76200
C372        C  0.76804730  0.50943767  0.28812004     0.99700
C373        C  0.75449871  0.58033162  0.21312681     0.94600
O374        O  0.71783329  0.55446870  0.20401102    -0.81500
O375        O  0.50152277  0.70466300  0.32101582    -0.81000
C376        C  0.49716450  0.65239222  0.21340655     0.98400
O377        O  0.46645344  0.65118684  0.22661802    -0.70100
O378        O  0.43428738  0.60534957  0.27064075    -0.73700
Al379      Al  0.45876549  0.66525740  0.26204013     1.49000
C380        C  0.42962966  0.59399951  0.29504565     0.93600
O381        O  0.53192236  0.62234248  0.29034498    -0.79900
O382        O  0.58663026  0.75121235  0.28102290    -0.73500
Al383      Al  0.51653877  0.66296291  0.30637533     1.90100
O384        O  0.58185387  0.67325212  0.26461649    -0.72500
O385        O  0.54111569  0.74575413  0.23750450    -0.72400
O386        O  0.53482550  0.66947467  0.22302874    -0.78000
O387        O  0.47501683  0.72202221  0.25164384    -0.76200
O388        O  0.51082333  0.67871778  0.27333801    -1.12400
O389        O  0.44253632  0.67861102  0.29591032    -0.71600
C390        C  0.46755875  0.70513039  0.31345254     0.99200
C391        C  0.56211041  0.63434583  0.27271007     0.95600
Al392      Al  0.55767303  0.70786012  0.25324521     1.55600
O393        O  0.45843458  0.61695317  0.31180489    -0.76200
C394        C  0.50753733  0.74884020  0.23850120     0.99700
C395        C  0.59517124  0.74272412  0.30420790     0.94600
O396        O  0.57592371  0.70424693  0.31205393    -0.81500
O397        O  0.05876974  0.15390240  0.87006300    -0.81000
C398        C  0.99613146  0.15963400  0.97397571     0.98400
O399        O  0.99687970  0.12840492  0.96279857    -0.70100
O400        O  0.95637392  0.08772209  0.91785991    -0.73700
Al401      Al  0.01585367  0.11855786  0.92960554     1.49000
C402        C  0.94725156  0.08123153  0.89301963     0.93600
O403        O  0.97048532  0.18310708  0.88939533    -0.79900
O404        O  0.09588491  0.24839001  0.90660060    -0.73500
Al405      Al  0.01433248  0.16827836  0.87977145     1.90100
O406        O  0.01341368  0.23558876  0.91752936    -0.72500
O407        O  0.09060708  0.20814381  0.95201420    -0.72400
O408        O  0.01083031  0.19555194  0.96233152    -0.78000
O409        O  0.07245981  0.14099827  0.94376606    -0.76200
O410        O  0.02689599  0.16818811  0.91456118    -1.12400
O411        O  0.03486225  0.09997135  0.89916190    -0.71600
C412        C  0.06034158  0.12202509  0.88041196     0.99200
C413        C  0.97826684  0.21516955  0.90461362     0.95600
Al414      Al  0.05072429  0.21777299  0.93289366     1.55600
O415        O  0.97079653  0.10945525  0.87624778    -0.76200
C416        C  0.09701486  0.17686627  0.95491111     0.99700
C417        C  0.08948945  0.25279497  0.88203507     0.94600
O418        O  0.05386629  0.22679229  0.87170912    -0.81500
O419        O  0.82706052  0.37276986  0.98677184    -0.81000
C420        C  0.83399153  0.32151245  0.88095231     0.98400
O421        O  0.79977285  0.30819873  0.89451439    -0.70100
O422        O  0.76390805  0.26969427  0.94012554    -0.73700
Al423      Al  0.78798821  0.32791343  0.92703150     1.49000
C424        C  0.75906861  0.26179442  0.96497212     0.93600
O425        O  0.86380104  0.29420254  0.95892677    -0.79900
O426        O  0.91420244  0.42218132  0.95237368    -0.73500
Al427      Al  0.84511986  0.33274805  0.97414646     1.90100
O428        O  0.91267109  0.34661352  0.93287834    -0.72500
O429        O  0.87056703  0.41960151  0.90994306    -0.72400
O430        O  0.87032210  0.34918524  0.89014738    -0.78000
O431        O  0.80028663  0.38019089  0.91004836    -0.76200
O432        O  0.84017082  0.34741334  0.94069013    -1.12400
O433        O  0.77089572  0.34764974  0.95831371    -0.71600
C434        C  0.79417461  0.37346813  0.97699358     0.99200
C435        C  0.89481323  0.30792137  0.94156983     0.95600
Al436      Al  0.88819970  0.38163830  0.92292715     1.55600
O437        O  0.78817661  0.28677973  0.98065547    -0.76200
C438        C  0.83425557  0.41392510  0.90323186     0.99700
C439        C  0.92295376  0.41261258  0.97500564     0.94600
O440        O  0.90358745  0.37385523  0.98180319    -0.81500
O441        O  0.25890036  0.40485579  0.82017414    -0.81000
C442        C  0.32360923  0.45382017  0.71703371     0.98400
O443        O  0.28802103  0.42267511  0.72484224    -0.70100
O444        O  0.28842640  0.38470705  0.77049339    -0.73700
Al445      Al  0.25620029  0.41038669  0.75828269     1.49000
C446        C  0.32460642  0.39936198  0.78254331     0.93600
O447        O  0.35338834  0.51380632  0.81450057    -0.79900
O448        O  0.29859016  0.53376355  0.78161497    -0.73500
Al449      Al  0.30412641  0.45914724  0.80899180     1.90100
O450        O  0.37540884  0.53310528  0.77397357    -0.72500
O451        O  0.27175924  0.49685178  0.73444287    -0.72400
O452        O  0.34303780  0.48804955  0.73059816    -0.78000
O453        O  0.22126365  0.43108545  0.74442601    -0.76200
O454        O  0.29315762  0.45953237  0.77437947    -1.12400
O455        O  0.21444041  0.38709721  0.78719804    -0.71600
C456        C  0.22162629  0.38211074  0.81134779     0.99200
C457        C  0.38087123  0.54044233  0.79884020     0.95600
Al458      Al  0.31993185  0.50879300  0.75670532     1.55600
O459        O  0.33854687  0.43177072  0.79902678    -0.76200
C460        C  0.23354574  0.46601538  0.73221599     0.99700
C461        C  0.27465740  0.52033318  0.80254569     0.94600
O462        O  0.26947292  0.48724685  0.81616954    -0.81500
O463        O  0.40351334  0.24120678  0.70375247    -0.81000
C464        C  0.47248311  0.30158605  0.80370674     0.98400
O465        O  0.43521264  0.27385846  0.79565695    -0.70100
O466        O  0.39394296  0.27310034  0.75166334    -0.73700
Al467      Al  0.41574509  0.23740266  0.76405854     1.49000
C468        C  0.41153963  0.31013908  0.74065489     0.93600
O469        O  0.51981887  0.32584430  0.70512088    -0.79900
O470        O  0.53261325  0.26241895  0.73094098    -0.73500
Al471      Al  0.46189466  0.28131366  0.71164440     1.90100
O472        O  0.54327925  0.34280713  0.74579754    -0.72500
O473        O  0.50033453  0.23424562  0.77894866    -0.72400
O474        O  0.50582659  0.30995857  0.79059521    -0.78000
O475        O  0.42995835  0.19806372  0.78006590    -0.76200
O476        O  0.46472982  0.26803717  0.74585256    -1.12400
O477        O  0.38807527  0.19468671  0.73556407    -0.71600
C478        C  0.38123736  0.20342313  0.71203868     0.99200
C479        C  0.54879265  0.35033169  0.72102006     0.95600
Al480      Al  0.51611864  0.28584774  0.76023279     1.55600
O481        O  0.44395597  0.32244730  0.72447913    -0.76200
C482        C  0.46570907  0.20206348  0.78662324     0.99700
C483        C  0.51091727  0.23761212  0.71156797     0.94600
O484        O  0.47903031  0.23919884  0.70077299    -0.81500
O485        O  0.16065175  0.03390296  0.65256826    -0.81000
C486        C  0.16462058  0.98723798  0.54465679     0.98400
O487        O  0.13217513  0.98422461  0.55686996    -0.70100
O488        O  0.09699483  0.93635329  0.60050418    -0.73700
Al489      Al  0.12152017  0.99658772  0.59251699     1.49000
C490        C  0.09102841  0.92473289  0.62488602     0.93600
O491        O  0.19648361  0.95542026  0.62156845    -0.79900
O492        O  0.24750549  0.08477855  0.61466846    -0.73500
Al493      Al  0.17787286  0.99397965  0.63786504     1.90100
O494        O  0.24680067  0.00989981  0.59818744    -0.72500
O495        O  0.20389928  0.07883252  0.56982041    -0.72400
O496        O  0.20143710  0.00484612  0.55554370    -0.78000
O497        O  0.13701940  0.05303272  0.58281554    -0.76200
O498        O  0.17331979  0.01087682  0.60497537    -1.12400
O499        O  0.10308396  0.00860942  0.62622436    -0.71600
C500        C  0.12735087  0.03487959  0.64417557     0.99200
C501        C  0.22893458  0.97070637  0.60536397     0.95600
Al502      Al  0.22120977  0.04228487  0.58617235     1.55600
O503        O  0.11985605  0.94677050  0.64188798    -0.76200
C504        C  0.16942431  0.08016763  0.56985498     0.99700
C505        C  0.25627623  0.07541607  0.63754749     0.94600
O506        O  0.23642701  0.03669810  0.64508378    -0.81500
O507        O  0.37744782  0.80382625  0.53365456    -0.81000
C508        C  0.30808798  0.83508551  0.62688175     0.98400
O509        O  0.29233886  0.79884248  0.61517783    -0.70100
O510        O  0.26673527  0.75190488  0.57155790    -0.73700
Al511      Al  0.32021185  0.77921387  0.59099198     1.49000
C512        C  0.26447161  0.74240509  0.54707602     0.93600
O513        O  0.29941971  0.84833172  0.54410670    -0.79900
O514        O  0.42489376  0.89872421  0.56171217    -0.73500
Al515      Al  0.33841553  0.82610881  0.53742609     1.90100
O516        O  0.34815392  0.90124686  0.57061108    -0.72500
O517        O  0.41401311  0.86144485  0.60901298    -0.72400
O518        O  0.34236463  0.86738461  0.61859483    -0.78000
O519        O  0.36484327  0.79420342  0.61595664    -0.76200
O520        O  0.34634805  0.82770218  0.57281801    -1.12400
O521        O  0.34823586  0.75666751  0.56811419    -0.71600
C522        C  0.37526426  0.77342552  0.54859280     0.99200
C523        C  0.31145365  0.88227850  0.55877695     0.95600
Al524      Al  0.37970372  0.87828707  0.58847516     1.55600
O525        O  0.29280017  0.76887707  0.53171026    -0.76200
C526        C  0.40016866  0.82684054  0.62202799     0.99700
C527        C  0.41942790  0.90415151  0.53727526     0.94600
O528        O  0.38246779  0.88234197  0.52746790    -0.81500
O529        O  0.56336606  0.81342591  0.81562847    -0.81000
C530        C  0.47608410  0.80552007  0.71966180     0.98400
O531        O  0.51503062  0.81301010  0.72053086    -0.70100
O532        O  0.56102438  0.87005924  0.75668412    -0.73700
Al533      Al  0.55130641  0.81470874  0.75111102     1.49000
C534        C  0.55462492  0.88942052  0.77574047     0.93600
O535        O  0.45874044  0.81087341  0.80892750    -0.79900
O536        O  0.46199792  0.71058369  0.78331180    -0.73500
Al537      Al  0.51081428  0.80920915  0.80809264     1.90100
O538        O  0.41809376  0.75171098  0.78737862    -0.72500
O539        O  0.47850078  0.72919208  0.73308475    -0.72400
O540        O  0.45045331  0.78663829  0.73909095    -0.78000
O541        O  0.54716667  0.76100604  0.74201290    -0.76200
O542        O  0.50686359  0.79140640  0.77402234    -1.12400
O543        O  0.59591459  0.82185895  0.77708023    -0.71600
C544        C  0.59598992  0.81999234  0.80265785     0.99200
C545        C  0.42207920  0.78049739  0.80350616     0.95600
Al546      Al  0.45678085  0.74869972  0.76191402     1.55600
O547        O  0.53762680  0.87034111  0.79794100    -0.76200
C548        C  0.51452664  0.73130257  0.73048550     0.99700
C549        C  0.47213388  0.71330846  0.80785124     0.94600
O550        O  0.48505055  0.74841097  0.82151012    -0.81500
O551        O  0.72269661  0.12681391  0.70340564    -0.81000
C552        C  0.66845957  0.13624734  0.80614654     0.98400
O553        O  0.69268063  0.12404818  0.79561291    -0.70100
O554        O  0.69120237  0.08358267  0.75093235    -0.73700
Al555      Al  0.72728466  0.14145877  0.76389005     1.49000
C556        C  0.65274924  0.06577434  0.74185079     0.93600
O557        O  0.63524105  0.15614007  0.70829157    -0.79900
O558        O  0.69756400  0.23165127  0.73183617    -0.73500
Al559      Al  0.68122082  0.14374946  0.71255541     1.90100
O560        O  0.61977360  0.16164896  0.74969634    -0.72500
O561        O  0.73276101  0.23167427  0.77803131    -0.72400
O562        O  0.65958280  0.16197718  0.79434896    -0.78000
O563        O  0.76628311  0.19470266  0.78023810    -0.76200
O564        O  0.69587935  0.15992733  0.74678357    -1.12400
O565        O  0.76928593  0.15774534  0.73524625    -0.71600
C566        C  0.76089521  0.14319683  0.71148279     0.99200
C567        C  0.61091719  0.15987459  0.72498325     0.95600
Al568      Al  0.67873990  0.19373890  0.76211321     1.55600
O569        O  0.64134553  0.08581852  0.72528427    -0.76200
C570        C  0.76427715  0.22799614  0.78581198     0.99700
C571        C  0.72211491  0.23506568  0.71220235     0.94600
O572        O  0.72170188  0.20219748  0.70149382    -0.81500
O573        O  0.14615492  0.53004847  0.53233939    -0.81000
C574        C  0.15417384  0.48894696  0.64040319     0.98400
O575        O  0.18470632  0.51784004  0.62686882    -0.70100
O576        O  0.21528924  0.50176946  0.58282172    -0.73700
Al577      Al  0.19118399  0.53779182  0.59111865     1.49000
C578        C  0.21826448  0.49240082  0.55866663     0.93600
O579        O  0.11482996  0.41925089  0.56509670    -0.79900
O580        O  0.06262735  0.49617663  0.57371156    -0.73500
Al581      Al  0.13106571  0.47473348  0.54816942     1.90100
O582        O  0.06670208  0.42373384  0.59097263    -0.72500
O583        O  0.11041596  0.53742400  0.61631661    -0.72400
O584        O  0.11623804  0.46824038  0.63120475    -0.78000
O585        O  0.17596268  0.57943967  0.60159250    -0.76200
O586        O  0.13847453  0.49864780  0.58070787    -1.12400
O587        O  0.20583935  0.56534319  0.55662858    -0.71600
C588        C  0.17984832  0.56508120  0.53914381     0.99200
C589        C  0.08397050  0.40240056  0.58233731     0.95600
Al590      Al  0.09248135  0.48273203  0.60130410     1.55600
O591        O  0.18852351  0.48517173  0.54236965    -0.76200
C592        C  0.14396337  0.57384648  0.61540355     0.99700
C593        C  0.05288106  0.47778637  0.55089270     0.94600
O594        O  0.07185522  0.45802862  0.54302802    -0.81500
O595        O  0.92866514  0.08111884  0.64463847    -0.81000
C596        C  0.00323685  0.17472779  0.54922496     0.98400
O597        O  0.01318064  0.14973654  0.56095512    -0.70100
O598        O  0.03791933  0.13006079  0.60496237    -0.73700
Al599      Al  0.98335171  0.10621286  0.58670403     1.49000
C600        C  0.04148262  0.12643961  0.62982673     0.93600
O601        O  0.01228134  0.20313128  0.63364920    -0.79900
O602        O  0.88794937  0.13881531  0.61456313    -0.73500
Al603      Al  0.97072051  0.14215667  0.63978604     1.90100
O604        O  0.96921382  0.21138236  0.60440843    -0.72500
O605        O  0.89484212  0.10622109  0.56868297    -0.72400
O606        O  0.97171978  0.17863170  0.55713574    -0.78000
O607        O  0.93516659  0.07668321  0.56377025    -0.76200
O608        O  0.96240343  0.13497768  0.60432359    -1.12400
O609        O  0.95426155  0.05821980  0.61090354    -0.71600
C610        C  0.92838925  0.05059368  0.63065260     0.99200
C611        C  0.00306167  0.22709785  0.61900921     0.95600
Al612      Al  0.93345989  0.15700759  0.58774210     1.55600
O613        O  0.01486988  0.12833437  0.64523093    -0.76200
C614        C  0.90119295  0.07757454  0.55855505     0.99700
C615        C  0.89354219  0.14802208  0.63934348     0.94600
O616        O  0.92913260  0.15762603  0.64946948    -0.81500
O617        O  0.59276364  0.41913146  0.97830646    -0.81000
C618        C  0.66692986  0.50311599  0.88028531     0.98400
O619        O  0.66995589  0.47257942  0.89053072    -0.70100
O620        O  0.69920817  0.46058274  0.93536292    -0.73700
Al621      Al  0.64277884  0.43472992  0.91938601     1.49000
C622        C  0.70479160  0.46010942  0.96033457     0.93600
O623        O  0.67966066  0.53835272  0.96267921    -0.79900
O624        O  0.55383201  0.47416350  0.94396758    -0.73500
Al625      Al  0.63623973  0.47883078  0.97083991     1.90100
O626        O  0.63584247  0.54763398  0.93511025    -0.72500
O627        O  0.56188888  0.44345057  0.89767192    -0.72400
O628        O  0.64085428  0.51415661  0.88927343    -0.78000
O629        O  0.59109382  0.40256218  0.89962197    -0.76200
O630        O  0.62629676  0.46850518  0.93560223    -1.12400
O631        O  0.61638941  0.39133688  0.94658305    -0.71600
C632        C  0.59140845  0.38667106  0.96623987     0.99200
C633        C  0.67134228  0.56264927  0.94788264     0.95600
Al634      Al  0.60020972  0.49275911  0.91805983     1.55600
O635        O  0.67952828  0.46386946  0.97605178    -0.76200
C636        C  0.56174103  0.40930008  0.89137262     0.99700
C637        C  0.55949269  0.48477696  0.96854882     0.94600
O638        O  0.59557573  0.49649251  0.97889654    -0.81500
O639        O  0.81794719  0.87210535  0.86656762    -0.81000
C640        C  0.80358500  0.80678883  0.97135807     0.98400
O641        O  0.83779382  0.83533008  0.96036115    -0.70100
O642        O  0.87889040  0.83310009  0.91641595    -0.73700
Al643      Al  0.85142176  0.86556109  0.92751259     1.49000
C644        C  0.88614898  0.83025969  0.89179872     0.93600
O645        O  0.78203205  0.75545524  0.89206883    -0.79900
O646        O  0.72722407  0.83076390  0.90005810    -0.73500
Al647      Al  0.80012035  0.81364782  0.87825044     1.90100
O648        O  0.72798067  0.75469661  0.91415079    -0.72500
O649        O  0.76503447  0.86339073  0.94746831    -0.72400
O650        O  0.76731736  0.79128582  0.95986288    -0.78000
O651        O  0.83462135  0.90398141  0.94194871    -0.76200
O652        O  0.80103514  0.83067022  0.91215858    -1.12400
O653        O  0.87134252  0.90219700  0.89663727    -0.71600
C654        C  0.84958076  0.90541380  0.87743504     0.99200
C655        C  0.74948621  0.73630076  0.90805095     0.95600
Al656      Al  0.75079639  0.81159211  0.92889926     1.55600
O657        O  0.85830472  0.82578204  0.87481253    -0.76200
C658        C  0.79968983  0.89784731  0.95207892     0.99700
C659        C  0.72163907  0.81612710  0.87615372     0.94600
O660        O  0.74186438  0.79738387  0.86890482    -0.81500
O661        O  0.38869383  0.46362802  0.03122973    -0.81000
C662        C  0.32680472  0.45099257  0.13317138     0.98400
O663        O  0.36157224  0.45373532  0.12502955    -0.70100
O664        O  0.36091753  0.41730316  0.07859019    -0.73700
Al665      Al  0.39394047  0.47450124  0.09223578     1.49000
C666        C  0.32241071  0.39695359  0.06948401     0.93600
O667        O  0.29832222  0.48529874  0.03729518    -0.79900
O668        O  0.35570392  0.55856945  0.07025802    -0.73500
Al669      Al  0.34558211  0.47655786  0.04261790     1.90100
O670        O  0.27668355  0.48318603  0.07793371    -0.72500
O671        O  0.38150411  0.54709300  0.11730217    -0.72400
O672        O  0.30912272  0.46881234  0.12085580    -0.78000
O673        O  0.43010633  0.52894081  0.10770123    -0.76200
O674        O  0.35774634  0.48837406  0.07703914    -1.12400
O675        O  0.43494276  0.49407143  0.06307045    -0.71600
C676        C  0.42660009  0.47956574  0.03938044     0.99200
C677        C  0.27094316  0.48461234  0.05304968     0.95600
Al678      Al  0.33281474  0.51245450  0.09506096     1.55600
O679        O  0.30834974  0.41569261  0.05344420    -0.76200
C680        C  0.41904192  0.55269275  0.11993087     0.99700
C681        C  0.38000191  0.56771303  0.04951219     0.94600
O682        O  0.38298297  0.53862076  0.03550174    -0.81500
O683        O  0.23576886  0.15950743  0.15056285    -0.81000
C684        C  0.17329500  0.15957508  0.04859375     0.98400
O685        O  0.20928554  0.16684163  0.05754080    -0.70100
O686        O  0.24735485  0.20606711  0.10257123    -0.73700
Al687      Al  0.22657572  0.14933904  0.08933991     1.49000
C688        C  0.23008502  0.22489424  0.11498152     0.93600
O689        O  0.12069677  0.13187009  0.14713319    -0.79900
O690        O  0.10682505  0.05714694  0.11842388    -0.73500
Al691      Al  0.17814549  0.14381613  0.14140970     1.90100
O692        O  0.09827014  0.12887851  0.10648958    -0.72500
O693        O  0.14230449  0.06431322  0.07098119    -0.72400
O694        O  0.13876999  0.13667811  0.06126633    -0.78000
O695        O  0.21266290  0.09658345  0.07358401    -0.76200
O696        O  0.17675440  0.13074140  0.10665526    -1.12400
O697        O  0.25363925  0.13334090  0.11705019    -0.71600
C698        C  0.25908695  0.14568027  0.14120606     0.99200
C699        C  0.09213156  0.12900618  0.13146279     0.95600
Al700      Al  0.12591082  0.09953109  0.09073218     1.55600
O701        O  0.19787377  0.20408805  0.13110069    -0.76200
C702        C  0.17754549  0.06606046  0.06533021     0.99700
C703        C  0.12661297  0.05157339  0.13792131     0.94600
O704        O  0.15873265  0.08337487  0.14985681    -0.81500
O705        O  0.90058211  0.49356067  0.48725474    -0.81000
C706        C  0.84363422  0.49554197  0.38355952     0.98400
O707        O  0.87939617  0.50236560  0.39275600    -0.70100
O708        O  0.91306901  0.54189523  0.43891232    -0.73700
Al709      Al  0.89626910  0.48592059  0.42535723     1.49000
C710        C  0.89358610  0.55835220  0.45149978     0.93600
O711        O  0.78453589  0.46050307  0.48073928    -0.79900
O712        O  0.77783498  0.38799015  0.45026292    -0.73500
Al713      Al  0.84313431  0.47548530  0.47631582     1.90100
O714        O  0.76359374  0.45699692  0.43972380    -0.72500
O715        O  0.81640928  0.40187768  0.40330104    -0.72400
O716        O  0.80883978  0.47253885  0.39598158    -0.78000
O717        O  0.88620371  0.43396032  0.40941627    -0.76200
O718        O  0.84503677  0.46453354  0.44143671    -1.12400
O719        O  0.92338638  0.47167013  0.45396333    -0.71600
C720        C  0.92638317  0.48250615  0.47831789     0.99200
C721        C  0.75610222  0.45627312  0.46450641     0.95600
Al722      Al  0.79591178  0.43266343  0.42394382     1.55600
O723        O  0.86089140  0.53549977  0.46688607    -0.76200
C724        C  0.85228622  0.40424098  0.39912579     0.99700
C725        C  0.79638810  0.38302516  0.47078845     0.94600
O726        O  0.82577966  0.41530546  0.48408490    -0.81500
O727        O  0.05636481  0.79467143  0.36656426    -0.81000
C728        C  0.99854052  0.79471098  0.46892293     0.98400
O729        O  0.01886323  0.77928589  0.45674864    -0.70100
O730        O  0.02742903  0.74803816  0.41031246    -0.73700
Al731      Al  0.05758988  0.80338772  0.42697961     1.49000
C732        C  0.98753151  0.72831366  0.40485383     0.93600
O733        O  0.96214759  0.81426030  0.37359246    -0.79900
O734        O  0.02311216  0.89199647  0.39625102    -0.73500
Al735      Al  0.01075653  0.80607800  0.37605507     1.90100
O736        O  0.94894574  0.82137487  0.41538397    -0.72500
O737        O  0.06433351  0.89499305  0.43975421    -0.72400
O738        O  0.99379132  0.82441881  0.45888944    -0.78000
O739        O  0.09259908  0.85417426  0.44703471    -0.76200
O740        O  0.02603290  0.82220319  0.41017400    -1.12400
O741        O  0.10147742  0.82580294  0.39960620    -0.71600
C742        C  0.09437281  0.81203942  0.37555526     0.99200
C743        C  0.93841322  0.81796250  0.39077608     0.95600
Al744      Al  0.00885741  0.85522907  0.42625989     1.55600
O745        O  0.97290676  0.74661149  0.38924856    -0.76200
C746        C  0.09314575  0.88930707  0.45025675     0.99700
C747        C  0.04504595  0.89706057  0.37502365     0.94600
O748        O  0.04762031  0.86576388  0.36423323    -0.81500
O749        O  0.26521936  0.74449080  0.30944152    -0.81000
C750        C  0.34604337  0.85254139  0.22063467     0.98400
O751        O  0.35817518  0.82961261  0.23289580    -0.70100
O752        O  0.37584461  0.79710716  0.27408203    -0.73700
Al753      Al  0.32440062  0.77977590  0.25332345     1.49000
C754        C  0.37795194  0.79232109  0.29891248     0.93600
O755        O  0.34772417  0.86879714  0.30388925    -0.79900
O756        O  0.22483355  0.80586923  0.28288724    -0.73500
Al757      Al  0.30635894  0.80679976  0.30790420     1.90100
O758        O  0.30554613  0.87938537  0.27510943    -0.72500
O759        O  0.23368650  0.77630662  0.23674422    -0.72400
O760        O  0.31082908  0.85101072  0.22673210    -0.78000
O761        O  0.28119547  0.75709600  0.22633622    -0.76200
O762        O  0.30041313  0.80395686  0.27247513    -1.12400
O763        O  0.29114931  0.72735633  0.27276268    -0.71600
C764        C  0.26534466  0.71647475  0.29288661     0.99200
C765        C  0.33974197  0.89377421  0.28922418     0.95600
Al766      Al  0.27117889  0.82632697  0.25687117     1.55600
O767        O  0.35058889  0.79353728  0.31383621    -0.76200
C768        C  0.24568961  0.75544967  0.22218184     0.99700
C769        C  0.22904541  0.81281461  0.30790654     0.94600
O770        O  0.26355393  0.82017589  0.31866151    -0.81500
O771        O  0.48696127  0.19722479  0.19926219    -0.81000
C772        C  0.47147925  0.13187433  0.30390228     0.98400
O773        O  0.50556146  0.16158794  0.29351229    -0.70100
O774        O  0.54599675  0.15772659  0.25007872    -0.73700
Al775      Al  0.51963985  0.19118136  0.26045753     1.49000
C776        C  0.55390984  0.15523323  0.22555956     0.93600
O777        O  0.44851771  0.08009505  0.22631888    -0.79900
O778        O  0.39609844  0.15757015  0.23445929    -0.73500
Al779      Al  0.46776430  0.13857680  0.21161089     1.90100
O780        O  0.39481479  0.08138245  0.24708032    -0.72500
O781        O  0.43441283  0.18903709  0.28123929    -0.72400
O782        O  0.43536512  0.11616759  0.29237130    -0.78000
O783        O  0.50335994  0.23047077  0.27387726    -0.76200
O784        O  0.46914094  0.15641836  0.24528161    -1.12400
O785        O  0.54039761  0.22690556  0.22929910    -0.71600
C786        C  0.51931703  0.23035358  0.20980812     0.99200
C787        C  0.41577980  0.06214184  0.24230415     0.95600
Al788      Al  0.41913121  0.13766298  0.26236999     1.55600
O789        O  0.52591998  0.14973383  0.20835111    -0.76200
C790        C  0.46878889  0.22413465  0.28466121     0.99700
C791        C  0.38883577  0.14178352  0.21090043     0.94600
O792        O  0.40959894  0.12399403  0.20258057    -0.81500
C793        C  0.35126888  0.96729987  0.29005775     0.24400
C794        C  0.36936553  0.94085477  0.28611828    -0.23700
C795        C  0.40592838  0.95611268  0.26921674     0.19300
C796        C  0.42204856  0.99565327  0.25511279     0.24400
C797        C  0.40119902  0.02025910  0.25720845    -0.23600
C798        C  0.36631248  0.00578950  0.27579323     0.19300
F799        F  0.34475651  0.02771271  0.27963464    -0.13600
F800        F  0.31542286  0.95331076  0.30567525    -0.15900
F801        F  0.45689163  0.00886574  0.23875568    -0.15900
F802        F  0.42384604  0.93100857  0.26470077    -0.13600
C803        C  0.16970008  0.82400868  0.36911002     0.24400
C804        C  0.12960648  0.81428299  0.35807559    -0.23700
C805        C  0.12288963  0.80515066  0.33010456     0.19300
C806        C  0.15484077  0.80454567  0.31385608     0.24400
C807        C  0.19457351  0.81322579  0.32499425    -0.23600
C808        C  0.20154064  0.82316979  0.35292956     0.19300
F809        F  0.23920262  0.83193513  0.36491260    -0.13600
F810        F  0.17815092  0.83375308  0.39577635    -0.15900
F811        F  0.14654413  0.79518998  0.28716109    -0.15900
F812        F  0.08536611  0.79703805  0.31823321    -0.13600
C813        C  0.95710874  0.63078691  0.44979564     0.24400
C814        C  0.91230385  0.60544428  0.44686056    -0.23700
C815        C  0.89088554  0.62191347  0.43113713     0.19300
C816        C  0.91453052  0.66174768  0.41726968     0.24400
C817        C  0.96012202  0.68543389  0.41860986    -0.23600
C818        C  0.98059025  0.66951206  0.43588678     0.19300
F819        F  0.02412791  0.69053590  0.43898343    -0.13600
F820        F  0.97898865  0.61593228  0.46455159    -0.15900
F821        F  0.89292464  0.67646334  0.40218046    -0.15900
F822        F  0.84744400  0.59835641  0.42800546    -0.13600
C823        C  0.35442425  0.13407167  0.16511043     0.24400
C824        C  0.35571640  0.14289742  0.19306921    -0.23700
C825        C  0.32467882  0.15217377  0.20370510     0.19300
C826        C  0.29345004  0.15279414  0.18692001     0.24400
C827        C  0.29237036  0.14442749  0.15888458    -0.23600
C828        C  0.32323909  0.13481954  0.14827264     0.19300
F829        F  0.32364459  0.12643003  0.12151509    -0.13600
F830        F  0.38377913  0.12517910  0.15378383    -0.15900
F831        F  0.26377527  0.16103480  0.19844745    -0.15900
F832        F  0.32382525  0.15986051  0.23054164    -0.13600
C833        C  0.25029340  0.33101624  0.08368619     0.24400
C834        C  0.29556428  0.35174418  0.08009951    -0.23700
C835        C  0.31752048  0.33209185  0.09179228     0.19300
C836        C  0.29579263  0.29420369  0.10664275     0.24400
C837        C  0.25066017  0.27194139  0.10896140    -0.23600
C838        C  0.22792017  0.29098480  0.09758447     0.19300
F839        F  0.18420153  0.27022964  0.09902969    -0.13600
F840        F  0.22783969  0.34952340  0.07408542    -0.15900
F841        F  0.31913431  0.27742637  0.11748847    -0.15900
F842        F  0.36080961  0.34930247  0.08872744    -0.13600
C843        C  0.70457089  0.67893395  0.94225254     0.24400
C844        C  0.73539844  0.69312841  0.92099271    -0.23700
C845        C  0.75213815  0.66612938  0.91366777     0.19300
C846        C  0.73520338  0.62465102  0.92528823     0.24400
C847        C  0.70156524  0.60957472  0.94450521    -0.23600
C848        C  0.68793811  0.63792116  0.95355681     0.19300
F849        F  0.65596387  0.62462828  0.97226742    -0.13600
F850        F  0.68910155  0.70416358  0.95196928    -0.15900
F851        F  0.74972806  0.59816114  0.91654020    -0.15900
F852        F  0.78345528  0.67893543  0.89457660    -0.13600
C853        C  0.53610102  0.50747293  0.01043787     0.24400
C854        C  0.52501209  0.48410205  0.98586724    -0.23700
C855        C  0.48110110  0.45886098  0.97914846     0.19300
C856        C  0.44917258  0.45734758  0.99645796     0.24400
C857        C  0.46041107  0.48078450  0.02107438    -0.23600
C858        C  0.50431585  0.50563784  0.02780306     0.19300
F859        F  0.51683076  0.52872976  0.05116176    -0.13600
F860        F  0.57803783  0.53266575  0.01777748    -0.15900
F861        F  0.40717218  0.43214519  0.98924399    -0.15900
F862        F  0.46887307  0.43452250  0.95626435    -0.13600
C863        C  0.98688536  0.46718691  0.48778467     0.24400
C864        C  0.95927512  0.48214245  0.49686623    -0.23700
C865        C  0.96268167  0.49552721  0.52413618     0.19300
C866        C  0.99282319  0.49423407  0.54172909     0.24400
C867        C  0.02010481  0.47889413  0.53265546    -0.23600
C868        C  0.01637906  0.46514843  0.50546249     0.19300
F869        F  0.04160237  0.44975535  0.49554293    -0.13600
F870        F  0.98535232  0.45424126  0.46178759    -0.15900
F871        F  0.99477250  0.50740063  0.56771069    -0.15900
F872        F  0.93666847  0.50992031  0.53411583    -0.13600
C873        C  0.09008343  0.33611417  0.59443892     0.24400
C874        C  0.06625928  0.35788328  0.59355050    -0.23700
C875        C  0.02542433  0.33831836  0.60632481     0.19300
C876        C  0.00837138  0.29807089  0.61849736     0.24400
C877        C  0.03021758  0.27465078  0.61738996    -0.23600
C878        C  0.07194430  0.29452649  0.60603371     0.19300
F879        F  0.09395373  0.27273450  0.60470890    -0.13600
F880        F  0.13051827  0.35474877  0.58393890    -0.15900
F881        F  0.96817391  0.28001236  0.62943463    -0.15900
F882        F  0.00047259  0.35713008  0.60611077    -0.13600
C883        C  0.83743539  0.16022809  0.70198424     0.24400
C884        C  0.79495631  0.14488510  0.69290607    -0.23700
C885        C  0.78541204  0.13156754  0.66557461     0.19300
C886        C  0.81723983  0.13327520  0.64801172     0.24400
C887        C  0.85947883  0.14778376  0.65727262    -0.23600
C888        C  0.86905029  0.16146860  0.68456231     0.19300
F889        F  0.90928944  0.17623539  0.69472830    -0.13600
F890        F  0.84867315  0.17390743  0.72789062    -0.15900
F891        F  0.80639153  0.12031407  0.62197167    -0.15900
F892        F  0.74508939  0.11679745  0.65559057    -0.13600
C893        C  0.65691901  0.80477425  0.81154614     0.24400
C894        C  0.63333670  0.82489569  0.81901611    -0.23700
C895        C  0.64099270  0.84452584  0.84483653     0.19300
C896        C  0.66952871  0.84200406  0.86324679     0.24400
C897        C  0.69184726  0.82014499  0.85635684    -0.23600
C898        C  0.68579919  0.80243524  0.82989263     0.19300
F899        F  0.70692641  0.78160989  0.82179523    -0.13600
F900        F  0.65021154  0.78514008  0.78707168    -0.15900
F901        F  0.67454838  0.86039782  0.88802340    -0.15900
F902        F  0.62001347  0.86573790  0.85254012    -0.13600
C903        C  0.56167808  0.94864644  0.74564513     0.24400
C904        C  0.56999603  0.93570118  0.77087185    -0.23700
C905        C  0.60207840  0.96679127  0.78743682     0.15700
C906        C  0.62825964  0.00892935  0.77800969     0.24400
C907        C  0.62188160  0.02157568  0.75205651    -0.23600
C908        C  0.58690302  0.99135929  0.73653186     0.19300
F909        F  0.57905884  0.00217690  0.71176014    -0.13600
F910        F  0.53067655  0.91911451  0.72907481    -0.15900
F911        F  0.66096677  0.03690110  0.79417392    -0.15900
F912        F  0.61089306  0.95538015  0.81172677    -0.13600
C913        C  0.24770126  0.67848356  0.51815196     0.24400
C914        C  0.23350373  0.69826802  0.53718611    -0.23700
C915        C  0.19346539  0.67285460  0.54991498     0.19300
C916        C  0.17046163  0.62802072  0.54580598     0.24400
C917        C  0.18828590  0.60777319  0.53012780    -0.23600
C918        C  0.22579808  0.63353906  0.51518589     0.19300
F919        F  0.24407875  0.61488577  0.50029243    -0.13600
F920        F  0.28579252  0.70190886  0.50500143    -0.15900
F921        F  0.13370365  0.60379949  0.56011023    -0.15900
F922        F  0.17822977  0.69091681  0.56784160    -0.13600
C923        C  0.41352653  0.79808856  0.69278574     0.24400
C924        C  0.45852015  0.81523632  0.69509936    -0.23700
C925        C  0.48509455  0.83885565  0.67314900     0.19300
C926        C  0.46682180  0.84385217  0.64921418     0.24400
C927        C  0.42180922  0.82446271  0.64675808    -0.23600
C928        C  0.39561462  0.80240332  0.66898152     0.19300
F929        F  0.35206716  0.78515740  0.66784965    -0.13600
F930        F  0.38606244  0.77590403  0.71328664    -0.15900
F931        F  0.49287561  0.86631975  0.62827282    -0.15900
F932        F  0.52859571  0.85677737  0.67470207    -0.13600
C933        C  0.05781434  0.08151251  0.66091733     0.24400
C934        C  0.07216049  0.11353970  0.64072432    -0.23700
C935        C  0.11254621  0.12715101  0.62867813     0.19300
C936        C  0.13602093  0.10639460  0.63497004     0.24400
C937        C  0.11786716  0.06943726  0.65149843    -0.23600
C938        C  0.07964529  0.05865327  0.66550549     0.19300
F939        F  0.06106801  0.02317863  0.68149047    -0.13600
F940        F  0.01985805  0.06869058  0.67393385    -0.15900
F941        F  0.17420957  0.11911791  0.62232970    -0.15900
F942        F  0.12811844  0.15879589  0.60976304    -0.13600
C943        C  0.30470279  0.94663750  0.56479190     0.24400
C944        C  0.28391571  0.90155558  0.56424192    -0.23700
C945        C  0.24357926  0.87800479  0.57726080     0.19300
C946        C  0.22529539  0.89964292  0.59134951     0.24400
C947        C  0.24768084  0.94514853  0.59309728    -0.23600
C948        C  0.28785269  0.96799533  0.57953049     0.19300
F949        F  0.31233447  0.01165777  0.58107272    -0.13600
F950        F  0.34374451  0.97039143  0.55263439    -0.15900
F951        F  0.18629723  0.87616335  0.60347695    -0.15900
F952        F  0.22322507  0.83425087  0.57767983    -0.13600
C953        C  0.14792082  0.91122541  0.48755790     0.24400
C954        C  0.12448150  0.92210046  0.46929249    -0.23700
C955        C  0.12423314  0.96098960  0.47335309     0.19300
C956        C  0.13989020  0.98394798  0.49747983     0.24400
C957        C  0.15844330  0.96991712  0.51708123    -0.23600
C958        C  0.16527734  0.93547535  0.51117289     0.19300
F959        F  0.18483673  0.92270935  0.52950335    -0.13600
F960        F  0.15071040  0.87502270  0.48399041    -0.15900
F961        F  0.13474908  0.01852520  0.50238286    -0.15900
F962        F  0.10584474  0.97503202  0.45498074    -0.13600
C963        C  0.51025282  0.17054754  0.72322170     0.24400
C964        C  0.52297011  0.20468603  0.70469970    -0.23700
C965        C  0.55999174  0.21667691  0.68901763     0.19300
C966        C  0.58608431  0.19826088  0.69380738     0.24400
C967        C  0.57669564  0.16884421  0.71520243    -0.23600
C968        C  0.53733085  0.15351573  0.72893183     0.19300
F969        F  0.52614359  0.12374413  0.74881054    -0.13600
F970        F  0.47405023  0.15746743  0.73824586    -0.15900
F971        F  0.62311832  0.21286025  0.67944703    -0.15900
F972        F  0.57350986  0.24960852  0.67114502    -0.13600
C973        C  0.33409843  0.18342693  0.67042725     0.24400
C974        C  0.34823922  0.17054818  0.69348008    -0.23700
C975        C  0.33261539  0.12635781  0.69740579     0.19300
C976        C  0.30355829  0.09582754  0.67901042     0.24400
C977        C  0.28915085  0.10858339  0.65605533    -0.23600
C978        C  0.30506559  0.15287643  0.65196609     0.19300
F979        F  0.29205562  0.16678574  0.63034674    -0.13600
F980        F  0.34796538  0.22576586  0.66573782    -0.15900
F981        F  0.29005105  0.05357530  0.68366196    -0.15900
F982        F  0.34636702  0.11256504  0.71869244    -0.13600
C983        C  0.49574331  0.30762668  0.85051280     0.24400
C984        C  0.47967626  0.32268701  0.83002999    -0.23700
C985        C  0.48521425  0.36426613  0.83194703     0.19300
C986        C  0.50860625  0.39136645  0.85351438     0.24400
C987        C  0.52838496  0.37771847  0.87274543    -0.23600
C988        C  0.52049221  0.33500348  0.87141250     0.19300
F989        F  0.53961843  0.32063389  0.88895066    -0.13600
F990        F  0.49208739  0.26803003  0.84832883    -0.15900
F991        F  0.51580010  0.43241274  0.85380496    -0.15900
F992        F  0.47205898  0.38017913  0.81149180    -0.13600
C993        C  0.40563347  0.60274291  0.83106659     0.24400
C994        C  0.41525356  0.58260383  0.80957773    -0.23700
C995        C  0.45448178  0.60645136  0.79584098     0.19300
C996        C  0.48090102  0.65052065  0.80132675     0.24400
C997        C  0.46634475  0.67230619  0.81859395    -0.23600
C998        C  0.43066007  0.64752378  0.83519611     0.19300
F999        F  0.41595128  0.66729971  0.85213723    -0.13600
F1000       F  0.36869290  0.58041875  0.84555580    -0.15900
F1001       F  0.51606392  0.67367668  0.78541453    -0.15900
F1002       F  0.46527258  0.58817483  0.77537881    -0.13600
C1003       C  0.32606594  0.33438214  0.76538138     0.24400
C1004       C  0.34954434  0.37739925  0.77474655    -0.23700
C1005       C  0.39472996  0.39984217  0.77089395     0.19300
C1006       C  0.41554393  0.37954616  0.75799875     0.24400
C1007       C  0.39144618  0.33676603  0.74828428    -0.23600
C1008       C  0.34641186  0.31486767  0.75215016     0.19300
F1009       F  0.32164917  0.27342093  0.74357242    -0.13600
F1010       F  0.28257808  0.31074863  0.76875703    -0.15900
F1011       F  0.45919401  0.40108455  0.75592150    -0.15900
F1012       F  0.41854940  0.44156676  0.77897301    -0.13600
C1013       C  0.17792768  0.43387104  0.69624620     0.24400
C1014       C  0.20433578  0.46944370  0.71290862    -0.23700
C1015       C  0.20764254  0.50958745  0.70786646     0.19300
C1016       C  0.18770789  0.51490075  0.68518335     0.24400
C1017       C  0.16436910  0.48018814  0.66736793    -0.23600
C1018       C  0.15800067  0.43927674  0.67355911     0.19300
F1019       F  0.13643371  0.40576949  0.65615717    -0.13600
F1020       F  0.17521419  0.39502516  0.70018248    -0.15900
F1021       F  0.19317961  0.55453121  0.67968850    -0.15900
F1022       F  0.23203299  0.54410873  0.72404326    -0.13600
C1023       C  0.74509516  0.39567099  0.99746852     0.24400
C1024       C  0.78381194  0.40734702  0.98388988    -0.23700
C1025       C  0.80129253  0.44373127  0.96688786     0.19300
C1026       C  0.77679768  0.46302483  0.95980099     0.24400
C1027       C  0.73599686  0.44835837  0.97143066    -0.23600
C1028       C  0.72200315  0.41684263  0.99188245     0.19300
F1029       F  0.68326611  0.40274698  0.00412742    -0.13600
F1030       F  0.72717585  0.36063274  0.01382080    -0.15900
F1031       F  0.79183922  0.49423079  0.94060489    -0.15900
F1032       F  0.83982370  0.45705863  0.95455061    -0.13600
C1033       C  0.79517747  0.29902788  0.80976903     0.24400
C1034       C  0.79608963  0.26067619  0.80467327    -0.23700
C1035       C  0.82013008  0.24949837  0.82222042     0.19300
C1036       C  0.83669376  0.27219925  0.84642911     0.24400
C1037       C  0.83002104  0.30646972  0.85302869    -0.23600
C1038       C  0.81187804  0.32159660  0.83389635     0.19300
F1039       F  0.80719493  0.35624832  0.83960695    -0.13600
F1040       F  0.77475911  0.31258585  0.79263859    -0.15900
F1041       F  0.85565110  0.25833601  0.86447302    -0.15900
F1042       F  0.82374751  0.21400583  0.81751474    -0.13600
C1043       C  0.16525823  0.31461319  0.87395258     0.24400
C1044       C  0.12298811  0.28755600  0.86462033    -0.23700
C1045       C  0.11314138  0.29277193  0.83765186     0.19300
C1046       C  0.14482022  0.32327538  0.82046174     0.24400
C1047       C  0.18730702  0.34984578  0.82962540    -0.23600
C1048       C  0.19698075  0.34513907  0.85674044     0.19300
F1049       F  0.23744892  0.36972201  0.86675463    -0.13600
F1050       F  0.17635332  0.31127293  0.89969786    -0.15900
F1051       F  0.13368436  0.32630916  0.79467410    -0.15900
F1052       F  0.07268359  0.26818875  0.82759745    -0.13600
C1053       C  0.87336537  0.01464548  0.89507439     0.24400
C1054       C  0.91386850  0.03846607  0.88270697    -0.23700
C1055       C  0.92485276  0.01915097  0.86153597     0.19300
C1056       C  0.89919691  0.97505119  0.85598585     0.24400
C1057       C  0.86116534  0.94994005  0.87059804    -0.23600
C1058       C  0.84663613  0.97089391  0.88845207     0.19300
F1059       F  0.80880741  0.94768052  0.90190424    -0.13600
F1060       F  0.86059535  0.03311187  0.91431514    -0.15900
F1061       F  0.91414724  0.95594904  0.83870157    -0.15900
F1062       F  0.96294016  0.04179047  0.84826245    -0.13600
C1063       C  0.95895907  0.27161048  0.89769421     0.24400
C1064       C  0.94769227  0.23120101  0.90834471    -0.23700
C1065       C  0.91665582  0.21431371  0.92913524     0.19300
C1066       C  0.89866892  0.23845598  0.93994747     0.24400
C1067       C  0.91145303  0.28003956  0.93005438    -0.23600
C1068       C  0.94081015  0.29543273  0.90797491     0.19300
F1069       F  0.95353449  0.33446851  0.89657385    -0.13600
F1070       F  0.99021739  0.28956439  0.87849909    -0.15900
F1071       F  0.87042198  0.22194834  0.96084115    -0.15900
F1072       F  0.90607352  0.17565059  0.94023062    -0.13600
C1073       C  0.16405670  0.20919981  0.01812079     0.24400
C1074       C  0.16968559  0.17353927  0.02152292    -0.23700
C1075       C  0.16036212  0.14434898  0.00012960     0.19300
C1076       C  0.14023185  0.14754571  0.97681767     0.24400
C1077       C  0.13039825  0.18092513  0.97431334    -0.23600
C1078       C  0.14575023  0.21368980  0.99429523     0.19300
F1079       F  0.13882982  0.24762633  0.99229126    -0.13600
F1080       F  0.17249741  0.23738660  0.03880663    -0.15900
F1081       F  0.12680994  0.11569982  0.95801493    -0.15900
F1082       F  0.16619658  0.10984552  0.00315042    -0.13600
C1083       C  0.45069736  0.79654275  0.30013136     0.24400
C1084       C  0.40857353  0.77969312  0.31024929    -0.23700
C1085       C  0.39303372  0.74526443  0.32876951     0.19300
C1086       C  0.41666412  0.72450093  0.33410632     0.24400
C1087       C  0.45684111  0.73840243  0.32173492    -0.23600
C1088       C  0.47507458  0.77668382  0.30642482     0.19300
F1089       F  0.51411329  0.79130469  0.29444474    -0.13600
F1090       F  0.46714070  0.83043889  0.28282766    -0.15900
F1091       F  0.39769900  0.68725928  0.34844068    -0.15900
F1092       F  0.35253016  0.72803926  0.33903658    -0.13600
C1093       C  0.46314559  0.64499905  0.16895216     0.24400
C1094       C  0.48752179  0.63409199  0.18606677    -0.23700
C1095       C  0.49598583  0.60123251  0.17844928     0.19300
C1096       C  0.47658616  0.57667601  0.15520979     0.24400
C1097       C  0.44870741  0.58504463  0.13945932    -0.23600
C1098       C  0.44409675  0.62084925  0.14573405     0.19300
F1099       F  0.41901454  0.63089240  0.13026212    -0.13600
F1100       F  0.45566362  0.67757986  0.17566646    -0.15900
F1101       F  0.48162524  0.54219398  0.14972597    -0.15900
F1102       F  0.51930878  0.59015325  0.19483191    -0.13600
C1103       C  0.57173498  0.29992918  0.18928158     0.24400
C1104       C  0.53231890  0.27519919  0.20272491    -0.23700
C1105       C  0.51775056  0.29647532  0.22026019     0.19300
C1106       C  0.54510525  0.33980903  0.22763118     0.24400
C1107       C  0.58635309  0.36327703  0.21613135    -0.23600
C1108       C  0.59817676  0.34371860  0.19558212     0.19300
F1109       F  0.63749604  0.36578509  0.18362109    -0.13600
F1110       F  0.58690102  0.28061750  0.17233728    -0.15900
F1111       F  0.53206240  0.35816040  0.24677407    -0.15900
F1112       F  0.47907503  0.27365089  0.23288458    -0.13600
C1113       C  0.60400166  0.61820211  0.23802863     0.24400
C1114       C  0.57599129  0.60449985  0.26074229    -0.23700
C1115       C  0.56271860  0.56310917  0.27122578     0.19300
C1116       C  0.58089034  0.53860629  0.26129948     0.24400
C1117       C  0.61204183  0.55478453  0.24056419    -0.23600
C1118       C  0.62223706  0.59402891  0.22852026     0.19300
F1119       F  0.65268714  0.61068356  0.20876977    -0.13600
F1120       F  0.61525678  0.65593905  0.22528491    -0.15900
F1121       F  0.57047212  0.50052258  0.27323357    -0.15900
F1122       F  0.53380534  0.54716190  0.29180221    -0.13600
C1123       C  0.81164954  0.54603904  0.32935599     0.24400
C1124       C  0.80083476  0.51503833  0.30856279    -0.23700
C1125       C  0.81450121  0.48443907  0.31101267     0.19300
C1126       C  0.83506213  0.48264007  0.33459318     0.24400
C1127       C  0.84051822  0.51001510  0.35646278    -0.23600
C1128       C  0.83039605  0.54279528  0.35334609     0.19300
F1129       F  0.83485267  0.56906366  0.37444859    -0.13600
F1130       F  0.79938484  0.57632626  0.32802363    -0.15900
F1131       F  0.84497533  0.45077641  0.33735202    -0.15900
F1132       F  0.80447221  0.45372614  0.29179114    -0.13600
C1133       C  0.80557929  0.64916122  0.15024706     0.24400
C1134       C  0.84972530  0.67146576  0.15684612    -0.23700
C1135       C  0.86208490  0.66420292  0.18262238     0.19300
C1136       C  0.83130907  0.63577249  0.20114119     0.24400
C1137       C  0.78724209  0.61336238  0.19448652    -0.23600
C1138       C  0.77482005  0.62068725  0.16876712     0.19300
F1139       F  0.73263188  0.60041042  0.16136557    -0.13600
F1140       F  0.79185276  0.65489436  0.12585625    -0.15900
F1141       F  0.84499479  0.62955208  0.22541079    -0.15900
F1142       F  0.90424518  0.68420516  0.19003808    -0.13600
C1143       C  0.04617759  0.93679986  0.15103050     0.24400
C1144       C  0.06019004  0.91624798  0.13256852    -0.23700
C1145       C  0.10161139  0.94023162  0.12131721     0.19300
C1146       C  0.12742637  0.98446673  0.12735250     0.24400
C1147       C  0.11169458  0.00580582  0.14393263    -0.23600
C1148       C  0.07132916  0.98108869  0.15636173     0.19300
F1149       F  0.05404255  0.00065620  0.17126431    -0.13600
F1150       F  0.00587353  0.91498363  0.16161788    -0.15900
F1151       F  0.16586347  0.00762673  0.11451656    -0.15900
F1152       F  0.11617973  0.92144766  0.10348905    -0.13600
C1153       C  0.81849102  0.74738365  0.02874987     0.24400
C1154       C  0.84177152  0.78215050  0.04682505    -0.23700
C1155       C  0.84156861  0.82100952  0.04252385     0.19300
C1156       C  0.82463664  0.82711045  0.01871022     0.24400
C1157       C  0.80718542  0.79450337  0.99900939    -0.23600
C1158       C  0.80160776  0.75375806  0.00478610     0.19300
F1159       F  0.78408919  0.72170372  0.98606213    -0.13600
F1160       F  0.81591719  0.70862824  0.03273761    -0.15900
F1161       F  0.82882804  0.86638092  0.01374257    -0.15900
F1162       F  0.86176360  0.85486099  0.05986296    -0.13600
C1163       C  0.19475769  0.47120749  0.05408796     0.24400
C1164       C  0.23577758  0.49102206  0.04220077    -0.23700
C1165       C  0.24504375  0.52187979  0.02166481     0.19300
C1166       C  0.21757361  0.53888527  0.01737333     0.24400
C1167       C  0.17998766  0.52408121  0.03290326    -0.23600
C1168       C  0.16607869  0.48608159  0.04822824     0.19300
F1169       F  0.12826167  0.46917922  0.06207971    -0.13600
F1170       F  0.18362132  0.43965426  0.07275146    -0.15900
F1171       F  0.23087699  0.57384084  0.00120186    -0.15900
F1172       F  0.28304885  0.53931253  0.00804864    -0.13600
C1173       C  0.07703808  0.70131455  0.10570940     0.24400
C1174       C  0.06983739  0.68098524  0.08011247    -0.23700
C1175       C  0.03882480  0.68136766  0.06311130     0.19300
C1176       C  0.01406852  0.69963316  0.07195802     0.24400
C1177       C  0.02050115  0.71924680  0.09785444    -0.23600
C1178       C  0.05323088  0.72088321  0.11428046     0.19300
F1179       F  0.05980307  0.73818156  0.13948470    -0.13600
F1180       F  0.10536720  0.69967299  0.12323004    -0.15900
F1181       F  0.98240077  0.69637412  0.05536899    -0.15900
F1182       F  0.02955038  0.66043976  0.03895921    -0.13600
C1183       C  0.96670436  0.43302719  0.01807885     0.24400
C1184       C  0.95493359  0.44567211  0.99390092    -0.23700
C1185       C  0.97330211  0.49001375  0.98855402     0.19300
C1186       C  0.00271195  0.52069573  0.00670514     0.24400
C1187       C  0.01397284  0.50793838  0.03087079    -0.23600
C1188       C  0.99582054  0.46387017  0.03632973     0.19300
F1189       F  0.00832185  0.45062753  0.05849380    -0.13600
F1190       F  0.95099093  0.39070140  0.02388722    -0.15900
F1191       F  0.02072948  0.56319251  0.00047547    -0.15900
F1192       F  0.96308032  0.50389953  0.96571405    -0.13600
C1193       C  0.24310871  0.73835384  0.17403890     0.24400
C1194       C  0.22070847  0.73160247  0.19838868    -0.23700
C1195       C  0.17635946  0.70137790  0.19943338     0.19300
C1196       C  0.15594162  0.67468571  0.17699151     0.24400
C1197       C  0.17974328  0.67883449  0.15329303    -0.23600
C1198       C  0.22284332  0.71300686  0.15163009     0.19300
F1199       F  0.24645156  0.72123521  0.12859517    -0.13600
F1200       F  0.28537056  0.76922979  0.17208330    -0.15900
F1201       F  0.11369044  0.64395614  0.17886516    -0.15900
F1202       F  0.15359255  0.69598956  0.22250194    -0.13600
C1203       C  0.88372436  0.86964305  0.35324543     0.24400
C1204       C  0.84941426  0.86135043  0.37062970    -0.23700
C1205       C  0.83831464  0.82970307  0.39079101     0.19300
C1206       C  0.86550486  0.81278204  0.39658581     0.24400
C1207       C  0.90294023  0.82532718  0.38123693    -0.23600
C1208       C  0.90936030  0.85067698  0.35793588     0.19300
F1209       F  0.94319017  0.86082391  0.34115879    -0.13600
F1210       F  0.89538355  0.89981723  0.33357012    -0.15900
F1211       F  0.85627217  0.78563908  0.41782900    -0.15900
F1212       F  0.80357757  0.81874861  0.40682787    -0.13600
C1213       C  0.64409496  0.76576842  0.34491191     0.24400
C1214       C  0.62609963  0.77677078  0.32301500    -0.23700
C1215       C  0.63498573  0.81963174  0.32091134     0.19300
C1216       C  0.66130436  0.85065844  0.34006590     0.24400
C1217       C  0.67961791  0.83972888  0.36174077    -0.23600
C1218       C  0.67031086  0.79681962  0.36409619     0.19300
F1219       F  0.68825983  0.78530617  0.38423378    -0.13600
F1220       F  0.63724836  0.72501713  0.34747192    -0.15900
F1221       F  0.66870318  0.89159778  0.33749172    -0.15900
F1222       F  0.61752052  0.83144042  0.30063547    -0.13600
C1223       C  0.84967683  0.98163045  0.51197742     0.24400
C1224       C  0.82496917  0.99247135  0.49514986    -0.23700
C1225       C  0.81821770  0.02652511  0.50256201     0.19300
C1226       C  0.84052760  0.05286243  0.52473133     0.24400
C1227       C  0.86972429  0.04512249  0.53952409    -0.23600
C1228       C  0.87199965  0.00770541  0.53382442     0.19300
F1229       F  0.89768222  0.99740700  0.54847587    -0.13600
F1230       F  0.85446714  0.94706825  0.50611805    -0.15900
F1231       F  0.83604825  0.08762422  0.53032445    -0.15900
F1232       F  0.79287090  0.03628080  0.48726085    -0.13600
C1233       C  0.52367973  0.00318513  0.51488148     0.24400
C1234       C  0.51982636  0.00033188  0.48644538    -0.23700
C1235       C  0.48334215  0.96489673  0.47499849     0.19300
C1236       C  0.45140462  0.93334332  0.49150984     0.24400
C1237       C  0.45503059  0.93635538  0.51997057    -0.23600
C1238       C  0.49183511  0.97144845  0.53141890     0.19300
F1239       F  0.49643649  0.97593280  0.55867279    -0.13600
F1240       F  0.55765330  0.03752765  0.52685144    -0.15900
F1241       F  0.41702576  0.89949314  0.47946056    -0.15900
F1242       F  0.47872369  0.96032847  0.44774003    -0.13600
C1243       C  0.79558890  0.31674440  0.45638473     0.24400
C1244       C  0.78415196  0.33759460  0.47624868    -0.23700
C1245       C  0.74948948  0.31205159  0.49350220     0.19300
C1246       C  0.72420162  0.26726659  0.48904163     0.24400
C1247       C  0.73170528  0.24785954  0.46626395    -0.23600
C1248       C  0.76883970  0.27270281  0.45075503     0.19300
F1249       F  0.77798957  0.25486270  0.42927600    -0.13600
F1250       F  0.83051700  0.34021153  0.44051819    -0.15900
F1251       F  0.68967935  0.24381865  0.50531411    -0.15900
F1252       F  0.73766490  0.33088698  0.51302239    -0.13600
C1253       C  0.73605000  0.06996189  0.43596399     0.24400
C1254       C  0.69445679  0.05718953  0.42603387    -0.23700
C1255       C  0.68063955  0.03044472  0.40258495     0.19300
C1256       C  0.70491089  0.01315813  0.39169682     0.24400
C1257       C  0.74361412  0.02150685  0.40367119    -0.23600
C1258       C  0.76022086  0.05188321  0.42500672     0.19300
F1259       F  0.79886064  0.06224870  0.43611092    -0.13600
F1260       F  0.75228691  0.09789593  0.45707267    -0.15900
F1261       F  0.68870332  0.98514566  0.37058000    -0.15900
F1262       F  0.64245464  0.01914053  0.39041947    -0.13600
C1263       C  0.47839229  0.08071282  0.33379657     0.24400
C1264       C  0.47488574  0.11763126  0.33073111    -0.23700
C1265       C  0.48525890  0.14680944  0.35220088     0.19300
C1266       C  0.50414914  0.14200912  0.37552414     0.24400
C1267       C  0.51243360  0.10756531  0.37760509    -0.23600
C1268       C  0.49645070  0.07520591  0.35734386     0.19300
F1269       F  0.50293010  0.04091972  0.35865835    -0.13600
F1270       F  0.46907845  0.05274682  0.31284927    -0.15900
F1271       F  0.51813902  0.17334490  0.39472415    -0.15900
F1272       F  0.48119603  0.18240039  0.34935049    -0.13600
C1273       C  0.33635357  0.73755513  0.02569732     0.24400
C1274       C  0.35041367  0.77602365  0.04034673    -0.23700
C1275       C  0.31892917  0.78423538  0.05171574     0.19300
C1276       C  0.27575980  0.75140807  0.05329655     0.24400
C1277       C  0.26355463  0.71005461  0.04352506    -0.23600
C1278       C  0.29343465  0.70395092  0.02829751     0.19300
F1279       F  0.28186199  0.66457615  0.01769786    -0.13600
F1280       F  0.36517592  0.73023074  0.01213451    -0.15900
F1281       F  0.24722938  0.75852382  0.06737143    -0.15900
F1282       F  0.33104448  0.82220958  0.06459825    -0.13600
C1283       C  0.46485911  0.68317770  0.05979180     0.24400
C1284       C  0.43785730  0.70140963  0.06085449    -0.23700
C1285       C  0.39486359  0.67620191  0.05241103     0.19300
C1286       C  0.37918497  0.63456285  0.04251736     0.24400
C1287       C  0.40428623  0.61445752  0.04379061    -0.23600
C1288       C  0.44770391  0.63941647  0.05220889     0.19300
F1289       F  0.47185616  0.62022839  0.05598053    -0.13600
F1290       F  0.50618489  0.70606972  0.06874238    -0.15900
F1291       F  0.33683532  0.61135870  0.03572974    -0.15900
F1292       F  0.36663428  0.69067419  0.05565075    -0.13600
C1293       C  0.54084862  0.81358364  0.20813080     0.24400
C1294       C  0.50395243  0.78007367  0.22076760    -0.23700
C1295       C  0.46285480  0.76990906  0.21121184     0.19300
C1296       C  0.45894119  0.78753350  0.18712364     0.24400
C1297       C  0.49579438  0.81668275  0.17265519    -0.23600
C1298       C  0.53672327  0.83206303  0.18417310     0.19300
F1299       F  0.57266383  0.86204589  0.17116190    -0.13600
F1300       F  0.58090780  0.82624840  0.21789292    -0.15900
F1301       F  0.41888496  0.77409782  0.17702421    -0.15900
F1302       F  0.42621953  0.73935449  0.22336785    -0.13600
C1303       C  0.41680042  0.89357585  0.19722643     0.24400
C1304       C  0.37201292  0.87771128  0.19720493    -0.23700
C1305       C  0.35153858  0.87631037  0.17263306     0.19300
C1306       C  0.37401404  0.88347685  0.14815601     0.24400
C1307       C  0.41741839  0.89392415  0.14819787    -0.23600
C1308       C  0.43947707  0.90255680  0.17291143     0.19300
F1309       F  0.48145977  0.91260707  0.17350865    -0.13600
F1310       F  0.43766368  0.89523948  0.22048802    -0.15900
F1311       F  0.35218179  0.87502981  0.12444879    -0.15900
F1312       F  0.30850790  0.86190079  0.17194671    -0.13600
C1313       C  0.98618980  0.06959873  0.16874779     0.24400
C1314       C  0.96038779  0.08121202  0.15369680    -0.23700
C1315       C  0.98079615  0.11674703  0.13610950     0.19300
C1316       C  0.02474975  0.13478901  0.12983474     0.24400
C1317       C  0.04957711  0.11955333  0.14252268    -0.23600
C1318       C  0.03069339  0.08945081  0.16373336     0.19300
F1319       F  0.05420182  0.07552974  0.17750040    -0.13600
F1320       F  0.96753941  0.03557827  0.18593322    -0.15900
F1321       F  0.04238250  0.16523211  0.11025275    -0.15900
F1322       F  0.95687287  0.13006975  0.12225136    -0.13600
C1323       C  0.89680403  0.87936824  0.16458010     0.24400
C1324       C  0.88464729  0.84349585  0.14772848    -0.23700
C1325       C  0.85097638  0.83250001  0.12905245     0.19300
C1326       C  0.83607969  0.86126315  0.12354851     0.24400
C1327       C  0.85236599  0.89990180  0.13813488    -0.23600
C1328       C  0.88022920  0.90704121  0.16012844     0.19300
F1329       F  0.89534530  0.94343006  0.17534797    -0.13600
F1330       F  0.92816882  0.89022889  0.18335984    -0.15900
F1331       F  0.80762325  0.85254584  0.10307833    -0.15900
F1332       F  0.83639934  0.79635183  0.11375094    -0.13600
C1333       C  0.69206354  0.94697545  0.07602203     0.24400
C1334       C  0.70459672  0.93828480  0.10136342    -0.23700
C1335       C  0.67495555  0.90104396  0.11534966     0.19300
C1336       C  0.63242788  0.87625216  0.10575985     0.24400
C1337       C  0.61928535  0.88777393  0.08180194    -0.23600
C1338       C  0.65011386  0.92166292  0.06628500     0.19300
F1339       F  0.63827172  0.93377919  0.04333410    -0.13600
F1340       F  0.71953803  0.98167970  0.06109463    -0.15900
F1341       F  0.60293691  0.84317277  0.12105737    -0.15900
F1342       F  0.68581745  0.89085602  0.13937358    -0.13600
C1343       C  0.92501308  0.14292311  0.03412058     0.24400
C1344       C  0.93890129  0.12100488  0.05158848    -0.23700
C1345       C  0.97763765  0.12148708  0.04560625     0.19300
C1346       C  0.99767755  0.13679517  0.02071147     0.24400
C1347       C  0.98052367  0.15358561  0.00192990    -0.23600
C1348       C  0.94592305  0.15923602  0.00943405     0.19300
F1349       F  0.92977340  0.17662958  0.99190385    -0.13600
F1350       F  0.88883281  0.14499705  0.03957243    -0.15900
F1351       F  0.03238056  0.13264518  0.01417935    -0.15900
F1352       F  0.99392399  0.10338820  0.06258238    -0.13600
C1353       C  0.77234584  0.93794552  0.01552588     0.24400
C1354       C  0.81256425  0.97372466  0.02155303    -0.23700
C1355       C  0.84517729  0.98985494  0.00185807     0.19300
C1356       C  0.83936563  0.96773581  0.97750761     0.24400
C1357       C  0.80059264  0.92894016  0.97245333    -0.23600
C1358       C  0.76617186  0.91583260  0.99103819     0.19300
F1359       F  0.72788865  0.87917027  0.98692454    -0.13600
F1360       F  0.74054460  0.92179778  0.03438577    -0.15900
F1361       F  0.87302761  0.98251013  0.95996304    -0.15900
F1362       F  0.88376046  0.02575022  0.00696500    -0.13600
C1363       C  0.32272618  0.49083399  0.29558676     0.24400
C1364       C  0.29838199  0.50379669  0.31146648    -0.23700
C1365       C  0.32010884  0.54122655  0.32723330     0.19300
C1366       C  0.36473186  0.56828559  0.32424669     0.24400
C1367       C  0.38766436  0.55887951  0.30471645    -0.23600
C1368       C  0.36693633  0.51884961  0.29153655     0.19300
F1369       F  0.38876869  0.50837771  0.27335323    -0.13600
F1370       F  0.30240566  0.45370229  0.28102865    -0.15900
F1371       F  0.38434352  0.60636863  0.33781995    -0.15900
F1372       F  0.29739758  0.55451760  0.34261414    -0.13600
C1373       C  0.19203569  0.60399212  0.26777402     0.24400
C1374       C  0.19829328  0.57906381  0.28714364    -0.23700
C1375       C  0.22020584  0.59939876  0.31132926     0.19300
C1376       C  0.23825703  0.64421288  0.31503483     0.24400
C1377       C  0.23439525  0.66943135  0.29479352    -0.23600
C1378       C  0.20944838  0.64844852  0.27173609     0.19300
F1379       F  0.20480519  0.67181494  0.25189434    -0.13600
F1380       F  0.17100179  0.58579080  0.24431861    -0.15900
F1381       F  0.26292096  0.66338409  0.33715158    -0.15900
F1382       F  0.22802824  0.57673159  0.33022871    -0.13600
C1383       C  0.30517430  0.44489579  0.20625865     0.24400
C1384       C  0.25993842  0.41866621  0.20595223    -0.23700
C1385       C  0.23973054  0.39359384  0.18276870     0.19300
C1386       C  0.26337496  0.39998884  0.15915722     0.24400
C1387       C  0.30750277  0.43014102  0.15869097    -0.23600
C1388       C  0.32895264  0.45016356  0.18273299     0.19300
F1389       F  0.37174329  0.47977167  0.18244113    -0.13600
F1390       F  0.32583544  0.46901778  0.22830007    -0.15900
F1391       F  0.24223884  0.38107599  0.13585858    -0.15900
F1392       F  0.19621216  0.36769732  0.18154402    -0.13600
C1393       C  0.09097953  0.48421244  0.16439883     0.24400
C1394       C  0.11863435  0.49696403  0.14182264    -0.23700
C1395       C  0.14909604  0.48326051  0.13955335     0.19300
C1396       C  0.15506406  0.46113169  0.16071574     0.24400
C1397       C  0.13049486  0.45211702  0.18444230    -0.23600
C1398       C  0.09697464  0.46186049  0.18572105     0.19300
F1399       F  0.07358254  0.45430900  0.20877442    -0.13600
F1400       F  0.06163717  0.49754553  0.16717419    -0.15900
F1401       F  0.18765742  0.45205950  0.15912775    -0.15900
F1402       F  0.17551671  0.49445232  0.11768697    -0.13600
C1403       C  0.66281954  0.21924647  0.19202531     0.24400
C1404       C  0.68866756  0.20918149  0.20823184    -0.23700
C1405       C  0.66827822  0.17421752  0.22626687     0.19300
C1406       C  0.62356807  0.15402480  0.23090194     0.24400
C1407       C  0.59821150  0.16697823  0.21649758    -0.23600
C1408       C  0.61787681  0.19755249  0.19561179     0.19300
F1409       F  0.59424263  0.20994215  0.18061974    -0.13600
F1410       F  0.68145848  0.25296987  0.17462573    -0.15900
F1411       F  0.60544882  0.12346984  0.25039260    -0.15900
F1412       F  0.69235736  0.16255667  0.24140367    -0.13600
C1413       C  0.83180937  0.15304774  0.15116617     0.24400
C1414       C  0.82432828  0.11333031  0.16128840    -0.23700
C1415       C  0.81959262  0.10633397  0.18952954     0.19300
C1416       C  0.82147545  0.13807825  0.20707590     0.24400
C1417       C  0.82884172  0.17777718  0.19686555    -0.23600
C1418       C  0.83424032  0.18488182  0.16865088     0.19300
F1419       F  0.84136889  0.22260652  0.15761952    -0.13600
F1420       F  0.83615384  0.16109195  0.12419810    -0.15900
F1421       F  0.81669890  0.13006224  0.23404921    -0.15900
F1422       F  0.81396877  0.06904850  0.20038312    -0.13600
C1423       C  0.81714537  0.43125225  0.22889666     0.24400
C1424       C  0.80085881  0.39196221  0.21502717    -0.23700
C1425       C  0.77285349  0.38371599  0.19292280     0.19300
C1426       C  0.75618982  0.41103746  0.18772322     0.24400
C1427       C  0.76723815  0.44665721  0.20450754    -0.23600
C1428       C  0.80104167  0.45894508  0.22323003     0.19300
F1429       F  0.81384797  0.49466429  0.23876758    -0.13600
F1430       F  0.84643060  0.44137458  0.24902321    -0.15900
F1431       F  0.72484473  0.39944949  0.16881213    -0.15900
F1432       F  0.75736446  0.34652760  0.17849077    -0.13600
C1433       C  0.98051334  0.33380056  0.23196991     0.24400
C1434       C  0.95457450  0.35093148  0.23983497    -0.23700
C1435       C  0.97168149  0.38638977  0.25774931     0.19300
C1436       C  0.01315084  0.40228010  0.26916738     0.24400
C1437       C  0.03810939  0.38298481  0.26262447    -0.23600
C1438       C  0.02149746  0.34949579  0.24292271     0.19300
F1439       F  0.04397323  0.33010604  0.23467039    -0.13600
F1440       F  0.96449985  0.29894101  0.21523367    -0.15900
F1441       F  0.02765233  0.43465711  0.28765011    -0.15900
F1442       F  0.94699247  0.40349438  0.26566271    -0.13600
C1443       C  0.73128882  0.15432497  0.32523923     0.24400
C1444       C  0.71801301  0.17502557  0.30640518    -0.23700
C1445       C  0.67611107  0.16919604  0.30852309     0.19300
C1446       C  0.65027879  0.14759544  0.33059091     0.24400
C1447       C  0.66580079  0.13165974  0.35085520    -0.23600
C1448       C  0.70525740  0.13292531  0.34748773     0.19300
F1449       F  0.72070564  0.11795952  0.36719754    -0.13600
F1450       F  0.77120021  0.15865311  0.32387578    -0.15900
F1451       F  0.61170318  0.14599548  0.33363524    -0.15900
F1452       F  0.66150958  0.18783016  0.29074790    -0.13600
C1453       C  0.81498263  0.30910230  0.35294438     0.24400
C1454       C  0.84839580  0.32577780  0.33381556    -0.23700
C1455       C  0.88727289  0.36338066  0.33964165     0.19300
C1456       C  0.89053579  0.38712068  0.36298077     0.24400
C1457       C  0.85449647  0.37351980  0.38019123    -0.23600
C1458       C  0.81758639  0.33313882  0.37572849     0.19300
F1459       F  0.78253770  0.31859626  0.39208187    -0.13600
F1460       F  0.77805951  0.27124399  0.34818674    -0.15900
F1461       F  0.92695720  0.42568436  0.36694777    -0.15900
F1462       F  0.92020514  0.37926860  0.32154845    -0.13600
C1463       C  0.69318168  0.41405816  0.49524861     0.24400
C1464       C  0.71263351  0.44526534  0.47470408    -0.23700
C1465       C  0.68810033  0.46102825  0.46217051     0.19300
C1466       C  0.64418867  0.44343942  0.46851521     0.24400
C1467       C  0.62344085  0.40788685  0.48607281    -0.23600
C1468       C  0.64888269  0.39523867  0.50063032     0.19300
F1469       F  0.62983405  0.36092153  0.51755384    -0.13600
F1470       F  0.71576397  0.39788259  0.50779715    -0.15900
F1471       F  0.62054992  0.45716465  0.45469430    -0.15900
F1472       F  0.70590581  0.49148017  0.44259914    -0.13600
C1473       C  0.51699549  0.16026896  0.46363462     0.24400
C1474       C  0.55275057  0.17348206  0.48096863    -0.23700
C1475       C  0.56606872  0.21082385  0.49663293     0.19300
C1476       C  0.54765571  0.23707886  0.49261842     0.24400
C1477       C  0.51688094  0.22735196  0.47203419    -0.23600
C1478       C  0.49985762  0.18746210  0.45871365     0.19300
F1479       F  0.46846132  0.17603456  0.43983993    -0.13600
F1480       F  0.50258242  0.12371063  0.44869307    -0.15900
F1481       F  0.56373938  0.27470609  0.50659638    -0.15900
F1482       F  0.60067692  0.22480835  0.51325388    -0.13600
C1483       C  0.66548143  0.46201066  0.35293323     0.24400
C1484       C  0.65021433  0.48141166  0.33472777    -0.23700
C1485       C  0.61723680  0.48930889  0.34280197     0.19300
C1486       C  0.59570821  0.47249214  0.36731577     0.24400
C1487       C  0.60702554  0.44742206  0.38384507    -0.23600
C1488       C  0.64445497  0.44559104  0.37742920     0.19300
F1489       F  0.65841522  0.42429197  0.39347993    -0.13600
F1490       F  0.69924205  0.45642745  0.34614191    -0.15900
F1491       F  0.56149677  0.47757239  0.37358533    -0.15900
F1492       F  0.60324416  0.50962145  0.32596726    -0.13600
C1493       C  0.51444127  0.31531428  0.33449497     0.24400
C1494       C  0.48054145  0.30022867  0.35325207    -0.23700
C1495       C  0.43999921  0.26568717  0.34650773     0.19300
C1496       C  0.43441148  0.24367838  0.32213201     0.24400
C1497       C  0.46976342  0.25573781  0.30445381    -0.23600
C1498       C  0.50906945  0.29356233  0.31012461     0.19300
F1499       F  0.54356441  0.30744929  0.29332464    -0.13600
F1500       F  0.55375297  0.34948762  0.34066102    -0.15900
F1501       F  0.39557134  0.20803669  0.31730620    -0.15900
F1502       F  0.40721313  0.25035332  0.36468845    -0.13600
C1503       C  0.99643587  0.07110839  0.35250473     0.24400
C1504       C  0.01504360  0.10906764  0.36810272    -0.23700
C1505       C  0.98722298  0.12045150  0.38153738     0.19300
C1506       C  0.94380978  0.08980919  0.38539279     0.24400
C1507       C  0.92688288  0.04863673  0.37403945    -0.23600
C1508       C  0.95232972  0.04071646  0.35558747     0.19300
F1509       F  0.93592373  0.00175227  0.34313811    -0.13600
F1510       F  0.02172558  0.06088562  0.33727407    -0.15900
F1511       F  0.91923735  0.09912511  0.40200897    -0.15900
F1512       F  0.00378331  0.15863813  0.39496086    -0.13600
C1513       C  0.16203320  0.33990255  0.35037532     0.24400
C1514       C  0.16656407  0.33684779  0.32214457    -0.23700
C1515       C  0.17668862  0.30581922  0.31251517     0.19300
C1516       C  0.18046233  0.27765590  0.33040549     0.24400
C1517       C  0.17413784  0.27962423  0.35839974    -0.23600
C1518       C  0.16579586  0.31162365  0.36823824     0.19300
F1519       F  0.15908559  0.31421457  0.39505299    -0.13600
F1520       F  0.15333676  0.36988441  0.36088493    -0.15900
F1521       F  0.18994588  0.24801407  0.32021465    -0.15900
F1522       F  0.18200427  0.30183442  0.28567274    -0.13600
C1523       C  0.05831030  0.00354331  0.37410463     0.24400
C1524       C  0.10175599  0.02858074  0.38173638    -0.23700
C1525       C  0.12945654  0.01168780  0.37752531     0.19300
C1526       C  0.11215664  0.96801424  0.36992561     0.24400
C1527       C  0.06752574  0.94186706  0.36504830    -0.23600
C1528       C  0.04209499  0.96170938  0.36444867     0.19300
F1529       F  0.99912302  0.93786282  0.35961537    -0.13600
F1530       F  0.03038395  0.01835982  0.37789262    -0.15900
F1531       F  0.13779697  0.95004678  0.37069226    -0.15900
F1532       F  0.17212302  0.03590004  0.38333107    -0.13600
C1533       C  0.29629151  0.20364262  0.43530555     0.24400
C1534       C  0.28310768  0.21482343  0.41120612    -0.23700
C1535       C  0.31406615  0.24872097  0.39569110     0.19300
C1536       C  0.35611406  0.27416983  0.40547333     0.24400
C1537       C  0.36856743  0.26583708  0.43096893    -0.23600
C1538       C  0.33881099  0.22862770  0.44496491     0.19300
F1539       F  0.34967555  0.21839652  0.46896994    -0.13600
F1540       F  0.26690996  0.17045098  0.45058575    -0.15900
F1541       F  0.38396216  0.30840989  0.39031641    -0.15900
F1542       F  0.30234915  0.26040413  0.37251834    -0.13600
C1543       C  0.12003568  0.10782712  0.51373710     0.24400
C1544       C  0.15708879  0.13787529  0.49989249    -0.23700
C1545       C  0.19715556  0.15783847  0.51304272     0.19300
C1546       C  0.20098670  0.14296964  0.53841202     0.24400
C1547       C  0.16448065  0.10876325  0.55080169    -0.23600
C1548       C  0.12348497  0.09404178  0.53927558     0.19300
F1549       F  0.08704803  0.06256252  0.55110926    -0.13600
F1550       F  0.08046541  0.09052882  0.50205820    -0.15900
F1551       F  0.24060450  0.15971916  0.54992616    -0.15900
F1552       F  0.23283643  0.18925075  0.50055553    -0.13600
C1553       C  0.00555076  0.18683172  0.49969467     0.24400
C1554       C  0.02737025  0.19652977  0.52458711    -0.23700
C1555       C  0.07265623  0.21740626  0.52478701     0.19300
C1556       C  0.09548608  0.22430590  0.50059585     0.24400
C1557       C  0.07320188  0.20970833  0.47599054    -0.23600
C1558       C  0.02837041  0.19293910  0.47551880     0.19300
F1559       F  0.00619365  0.17744934  0.45206366    -0.13600
F1560       F  0.96175666  0.16577600  0.49899679    -0.15900
F1561       F  0.13858278  0.23898748  0.50167021    -0.15900
F1562       F  0.09435899  0.22684540  0.54860812    -0.13600
C1563       C  0.64936944  0.16130092  0.97093160     0.24400
C1564       C  0.62802103  0.17730533  0.98723273    -0.23700
C1565       C  0.65290590  0.21591265  0.00145708     0.19300
C1566       C  0.69720144  0.24118663  0.99628130     0.24400
C1567       C  0.71696216  0.22871162  0.97622093    -0.23600
C1568       C  0.69337292  0.18737687  0.96482170     0.19300
F1569       F  0.71217169  0.17342027  0.94658083    -0.13600
F1570       F  0.62623388  0.12304875  0.95781458    -0.15900
F1571       F  0.71946671  0.28042607  0.00835257    -0.15900
F1572       F  0.63332527  0.23196383  0.01749725    -0.13600
C1573       C  0.49412561  0.01126214  0.01999080     0.24400
C1574       C  0.49985544  0.00966478  0.99177191    -0.23700
C1575       C  0.51090693  0.97935963  0.98193540     0.19300
C1576       C  0.51488422  0.95082770  0.99965141     0.24400
C1577       C  0.50861829  0.95225503  0.02775053    -0.23600
C1578       C  0.49893576  0.98333797  0.03766683     0.19300
F1579       F  0.49211596  0.98550303  0.06450727    -0.13600
F1580       F  0.48354821  0.03976976  0.03072449    -0.15900
F1581       F  0.52499720  0.92176860  0.98925738    -0.15900
F1582       F  0.51693704  0.97650904  0.95505644    -0.13600
C1583       C  0.50974151  0.27422256  0.94913690     0.24400
C1584       C  0.52248270  0.25101800  0.96593444    -0.23700
C1585       C  0.54973899  0.27267129  0.98809445     0.19300
C1586       C  0.56856069  0.31767599  0.99098891     0.24400
C1587       C  0.55895666  0.34139795  0.97252935    -0.23600
C1588       C  0.52684445  0.31874122  0.95298142     0.19300
F1589       F  0.51533932  0.34073901  0.93580127    -0.13600
F1590       F  0.48273314  0.25428715  0.92802972    -0.15900
F1591       F  0.59917219  0.33845116  0.01018356    -0.15900
F1592       F  0.56207390  0.25116612  0.00514775    -0.13600
C1593       C  0.61568636  0.08469016  0.83926790     0.24400
C1594       C  0.65296738  0.12388816  0.83380552    -0.23700
C1595       C  0.67161225  0.15524558  0.85418831     0.19300
C1596       C  0.65026466  0.14983932  0.87875397     0.24400
C1597       C  0.60943314  0.11322716  0.88287267    -0.23600
C1598       C  0.59425013  0.07902487  0.86386726     0.19300
F1599       F  0.55634835  0.04181239  0.86771178    -0.13600
F1600       F  0.59771762  0.05372359  0.81989854    -0.15900
F1601       F  0.66758391  0.18229572  0.89723634    -0.15900
F1602       F  0.70865424  0.19286144  0.84931308    -0.13600
C1603       C  0.44062563  0.13005534  0.84761987     0.24400
C1604       C  0.48191004  0.13667748  0.85330822    -0.23700
C1605       C  0.51481942  0.15683593  0.83395185     0.19300
C1606       C  0.50776056  0.17353037  0.81033407     0.24400
C1607       C  0.46793833  0.17160111  0.80595315    -0.23600
C1608       C  0.43359140  0.14744102  0.82406070     0.19300
F1609       F  0.39438128  0.14404200  0.82040011    -0.13600
F1610       F  0.40841037  0.11066803  0.86607589    -0.15900
F1611       F  0.54106034  0.19445408  0.79274333    -0.15900
F1612       F  0.55482221  0.16269881  0.83870772    -0.13600
C1613       C  0.94997349  0.87148340  0.86188024     0.24400
C1614       C  0.92954882  0.83994904  0.88209755    -0.23700
C1615       C  0.95294240  0.82256979  0.89428138     0.19300
C1616       C  0.99715918  0.83997412  0.88849936     0.24400
C1617       C  0.01887603  0.87607579  0.87136014    -0.23600
C1618       C  0.99425942  0.88975082  0.85688029     0.19300
F1619       F  0.01407094  0.92438872  0.84027975    -0.13600
F1620       F  0.92813083  0.88817358  0.84904004    -0.15900
F1621       F  0.01982893  0.82471291  0.90192861    -0.15900
F1622       F  0.93353742  0.79013304  0.91251491    -0.13600
C1623       C  0.08028067  0.07264241  0.85754748     0.24400
C1624       C  0.09299207  0.10979316  0.87329670    -0.23700
C1625       C  0.12754558  0.12238641  0.89151911     0.19300
C1626       C  0.14442645  0.09509056  0.89683725     0.24400
C1627       C  0.12834346  0.05564359  0.88311880    -0.23600
C1628       C  0.09831042  0.04617996  0.86206991     0.19300
F1629       F  0.08265808  0.00872708  0.84794053    -0.13600
F1630       F  0.04686954  0.05929285  0.84000437    -0.15900
F1631       F  0.17474301  0.10601576  0.91638751    -0.15900
F1632       F  0.14130745  0.15870834  0.90658206    -0.13600
C1633       C  0.30071017  0.04948703  0.92707361     0.24400
C1634       C  0.28348552  0.01095865  0.91177431    -0.23700
C1635       C  0.30934501  0.99227435  0.90759422     0.19300
C1636       C  0.35070476  0.01053664  0.91852322     0.24400
C1637       C  0.36866047  0.04904407  0.93420020    -0.23600
C1638       C  0.34308565  0.06863711  0.93796868     0.19300
F1639       F  0.35854357  0.10561360  0.95257319    -0.13600
F1640       F  0.27566858  0.06714308  0.93279993    -0.15900
F1641       F  0.37253316  0.98903307  0.91400470    -0.15900
F1642       F  0.29346154  0.95437598  0.89385317    -0.13600
C1643       C  0.13698283  0.97052863  0.01910406     0.24400
C1644       C  0.17109266  0.98567174  0.00045500    -0.23700
C1645       C  0.21052057  0.02241107  0.00638996     0.19300
C1646       C  0.21422040  0.04664389  0.02947456     0.24400
C1647       C  0.17811158  0.03437191  0.04650505    -0.23600
C1648       C  0.14027516  0.99485376  0.04191334     0.19300
F1649       F  0.10532055  0.98141374  0.05825374    -0.13600
F1650       F  0.09903402  0.93395670  0.01387628    -0.15900
F1651       F  0.25148891  0.08449994  0.03333725    -0.15900
F1652       F  0.24364826  0.03738507  0.98844248    -0.13600
C1653       C  0.05323968  0.81432015  0.98946721     0.24400
C1654       C  0.04129195  0.83656029  0.97095615    -0.23700
C1655       C  0.00066471  0.83356900  0.97383484     0.19300
C1656       C  0.97579985  0.81457252  0.99675878     0.24400
C1657       C  0.99048499  0.79731267  0.01673989    -0.23600
C1658       C  0.02791949  0.79495602  0.01234239     0.19300
F1659       F  0.04251537  0.77845307  0.03159705    -0.13600
F1660       F  0.09138609  0.81493104  0.98703067    -0.15900
F1661       F  0.93918091  0.81654223  0.00068766    -0.15900
F1662       F  0.98675593  0.85267663  0.95593243    -0.13600
C1663       C  0.37287328  0.81047695  0.80842561     0.24400
C1664       C  0.38327592  0.77873145  0.81512984    -0.23700
C1665       C  0.35293976  0.74187583  0.82922236     0.19300
C1666       C  0.31051716  0.73360655  0.83246382     0.24400
C1667       C  0.29776412  0.76033036  0.81959182    -0.23600
C1668       C  0.33014782  0.80142650  0.81078679     0.19300
F1669       F  0.31902772  0.82909329  0.79950299    -0.13600
F1670       F  0.40238748  0.84737528  0.79604391    -0.15900
F1671       F  0.28047237  0.69555584  0.84340377    -0.15900
F1672       F  0.36325355  0.71197983  0.83746798    -0.13600
C1673       C  0.13773334  0.80956198  0.81695246     0.24400
C1674       C  0.14509805  0.77617511  0.82524765    -0.23700
C1675       C  0.15206377  0.77281247  0.85311219     0.19300
C1676       C  0.15353471  0.80317127  0.87179221     0.24400
C1677       C  0.14867829  0.83775740  0.86303688    -0.23600
C1678       C  0.13943987  0.83983330  0.83559593     0.19300
F1679       F  0.13207119  0.87145833  0.82667222    -0.13600
F1680       F  0.12969783  0.81368280  0.79064238    -0.15900
F1681       F  0.16191673  0.79995486  0.89817732    -0.15900
F1682       F  0.15923140  0.74121015  0.86231986    -0.13600
C1683       C  0.28036186  0.59097913  0.80832706     0.24400
C1684       C  0.25339555  0.54591768  0.80884172    -0.23700
C1685       C  0.20909393  0.52892287  0.80340095     0.19300
C1686       C  0.19307427  0.55640197  0.79561921     0.24400
C1687       C  0.22144495  0.60109549  0.79238192    -0.23600
C1688       C  0.26505086  0.61785291  0.79947619     0.19300
F1689       F  0.29394389  0.66039232  0.79637762    -0.13600
F1690       F  0.32337281  0.60868219  0.81280712    -0.15900
F1691       F  0.15077660  0.53888332  0.78901552    -0.15900
F1692       F  0.18226177  0.48555001  0.80297608    -0.13600
C1693       C  0.31577541  0.85333796  0.67564576     0.24400
C1694       C  0.28911609  0.83803408  0.65264859    -0.23700
C1695       C  0.24420409  0.81714657  0.65585383     0.19300
C1696       C  0.22613302  0.80738937  0.68175038     0.24400
C1697       C  0.25281337  0.81641419  0.70453755    -0.23600
C1698       C  0.29767393  0.84176669  0.70147759     0.19300
F1699       F  0.32400195  0.85059197  0.72318035    -0.13600
F1700       F  0.35940447  0.87392382  0.67307566    -0.15900
F1701       F  0.18260237  0.78309277  0.68421313    -0.15900
F1702       F  0.21790080  0.80258229  0.63393302    -0.13600
C1703       C  0.12316368  0.62262603  0.67660518     0.24400
C1704       C  0.16414572  0.65805999  0.68093606    -0.23700
C1705       C  0.19586403  0.67098752  0.66085612     0.19300
C1706       C  0.18769222  0.64634202  0.63734291     0.24400
C1707       C  0.14766651  0.60810273  0.63395512    -0.23600
C1708       C  0.11458246  0.59818540  0.65309053     0.19300
F1709       F  0.07506902  0.56243287  0.65051553    -0.13600
F1710       F  0.09277906  0.60913749  0.69632381    -0.15900
F1711       F  0.22011572  0.65804105  0.61912833    -0.15900
F1712       F  0.23555047  0.70598885  0.66481159    -0.13600
C1713       C  0.65849945  0.40154125  0.68815410     0.24400
C1714       C  0.68030798  0.43957732  0.70348444    -0.23700
C1715       C  0.65538217  0.45330487  0.71826090     0.19300
C1716       C  0.61143110  0.42525996  0.72270068     0.24400
C1717       C  0.59089714  0.38438200  0.71068632    -0.23600
C1718       C  0.61394698  0.37390272  0.69183670     0.19300
F1719       F  0.59462172  0.33465910  0.67959975    -0.13600
F1720       F  0.68069614  0.38873892  0.67203731    -0.15900
F1721       F  0.58987062  0.43651605  0.74060705    -0.15900
F1722       F  0.67522551  0.49098772  0.73231917    -0.13600
C1723       C  0.80558571  0.34578515  0.72732732     0.24400
C1724       C  0.78591109  0.36756836  0.71608761    -0.23700
C1725       C  0.75398757  0.34684707  0.69632120     0.19300
C1726       C  0.73717727  0.30302658  0.69076960     0.24400
C1727       C  0.75302720  0.27958443  0.70445497    -0.23600
C1728       C  0.78964847  0.30205416  0.72111444     0.19300
F1729       F  0.80604693  0.28016798  0.73425914    -0.13600
F1730       F  0.83751922  0.36562872  0.74589551    -0.15900
F1731       F  0.70196489  0.28245602  0.67464587    -0.15900
F1732       F  0.73669281  0.36838363  0.68399949    -0.13600
C1733       C  0.98094614  0.59096388  0.72210942     0.24400
C1734       C  0.95205284  0.55845968  0.73931237    -0.23700
C1735       C  0.96813015  0.55013044  0.76324710     0.19300
C1736       C  0.01141453  0.57663998  0.77115323     0.24400
C1737       C  0.03957074  0.61206370  0.75516912    -0.23600
C1738       C  0.02399659  0.61751758  0.72987073     0.19300
F1739       F  0.04978773  0.65007734  0.71288506    -0.13600
F1740       F  0.96658525  0.59995975  0.69900005    -0.15900
F1741       F  0.02476341  0.56924328  0.79518610    -0.15900
F1742       F  0.94091409  0.51776901  0.77986515    -0.13600
C1743       C  0.86706801  0.49018394  0.84484039     0.24400
C1744       C  0.82681908  0.47576980  0.83289014    -0.23700
C1745       C  0.78907176  0.45016138  0.84785231     0.19300
C1746       C  0.79157304  0.43501572  0.87336573     0.24400
C1747       C  0.83190881  0.44396777  0.88370185    -0.23600
C1748       C  0.86975992  0.47437769  0.87010122     0.19300
F1749       F  0.90949269  0.48568216  0.87984443    -0.13600
F1750       F  0.90375281  0.51652479  0.83107129    -0.15900
F1751       F  0.75438158  0.40877134  0.88681214    -0.15900
F1752       F  0.74965941  0.43824680  0.83722679    -0.13600
C1753       C  0.76190569  0.54676534  0.83431109     0.24400
C1754       C  0.74152687  0.54044290  0.80912496    -0.23700
C1755       C  0.69866789  0.53154173  0.80800574     0.19300
C1756       C  0.67500327  0.52425964  0.83192818     0.24400
C1757       C  0.69402619  0.52484991  0.85685984    -0.23600
C1758       C  0.73804903  0.53801576  0.85802231     0.19300
F1759       F  0.75680910  0.53803426  0.88188342    -0.13600
F1760       F  0.80340590  0.55552485  0.83587902    -0.15900
F1761       F  0.63226985  0.51107411  0.83049003    -0.15900
F1762       F  0.67858507  0.52545087  0.78382803    -0.13600
C1763       C  0.02407455  0.85177066  0.62084017     0.24400
C1764       C  0.04773140  0.89123135  0.63443802    -0.23700
C1765       C  0.02714940  0.90182514  0.65503202     0.19300
C1766       C  0.98251451  0.87633500  0.65928284     0.24400
C1767       C  0.95801103  0.83901332  0.64377360    -0.23600
C1768       C  0.97983272  0.82525318  0.62610016     0.19300
F1769       F  0.95713258  0.78865093  0.61133696    -0.13600
F1770       F  0.04317874  0.84019460  0.60134575    -0.15900
F1771       F  0.96247240  0.89087260  0.67613553    -0.15900
F1772       F  0.04917010  0.93959770  0.66879476    -0.13600
C1773       C  0.83820470  0.64122925  0.64410271     0.24400
C1774       C  0.82540209  0.67037291  0.65359456    -0.23700
C1775       C  0.81763116  0.67088706  0.68166373     0.19300
C1776       C  0.82184407  0.64273301  0.69948223     0.24400
C1777       C  0.83355353  0.61306245  0.68981729    -0.23600
C1778       C  0.84200544  0.61286027  0.66194910     0.19300
F1779       F  0.85403743  0.58501462  0.65190323    -0.13600
F1780       F  0.84641551  0.63950034  0.61744672    -0.15900
F1781       F  0.81242748  0.64313129  0.72605800    -0.15900
F1782       F  0.80555866  0.69846079  0.69207803    -0.13600
C1783       C  0.84666975  0.93924331  0.60938420     0.24400
C1784       C  0.85484626  0.91368307  0.62716984    -0.23700
C1785       C  0.88027397  0.93357499  0.65039295     0.19300
C1786       C  0.90158908  0.97879569  0.65361369     0.24400
C1787       C  0.89569289  0.00445448  0.63460170    -0.23600
C1788       C  0.86563127  0.98377407  0.61368863     0.19300
F1789       F  0.85709827  0.00744393  0.59609702    -0.13600
F1790       F  0.82217657  0.92151304  0.58696539    -0.15900
F1791       F  0.93047881  0.99761193  0.67398583    -0.15900
F1792       F  0.88802674  0.90988567  0.66855874    -0.13600
C1793       C  0.99832042  0.81314092  0.51647483     0.24400
C1794       C  0.98232353  0.78126135  0.49633580    -0.23700
C1795       C  0.94507213  0.74165900  0.50118453     0.19300
C1796       C  0.92046520  0.73650388  0.52441987     0.24400
C1797       C  0.93328219  0.77117113  0.54283763    -0.23600
C1798       C  0.97423588  0.80812779  0.53966512     0.19300
F1799       F  0.98904657  0.84162520  0.55738169    -0.13600
F1800       F  0.03517842  0.85126171  0.51226246    -0.15900
F1801       F  0.88216028  0.69942554  0.52730754    -0.15900
F1802       F  0.93016199  0.70996896  0.48217381    -0.13600
C1803       C  0.83265386  0.80981141  0.49489653     0.24400
C1804       C  0.80074756  0.79303371  0.51496546    -0.23700
C1805       C  0.76188679  0.79293904  0.51095590     0.19300
C1806       C  0.75699139  0.81364642  0.48828686     0.24400
C1807       C  0.79131329  0.83509553  0.46969533    -0.23600
C1808       C  0.82807502  0.83050698  0.47248191     0.19300
F1809       F  0.86171472  0.84957628  0.45496922    -0.13600
F1810       F  0.87038219  0.80985799  0.49838329    -0.15900
F1811       F  0.72043684  0.81610937  0.48603238    -0.15900
F1812       F  0.73074976  0.77700604  0.53027811    -0.13600
C1813       C  0.28082814  0.52704477  0.52738243     0.24400
C1814       C  0.25939003  0.49749967  0.54842721    -0.23700
C1815       C  0.28100793  0.47963494  0.56213807     0.19300
C1816       C  0.32487013  0.49491307  0.55699801     0.24400
C1817       C  0.34801790  0.53001007  0.53944425    -0.23600
C1818       C  0.32508120  0.54364012  0.52318302     0.19300
F1819       F  0.34656518  0.57727073  0.50602098    -0.13600
F1820       F  0.26040614  0.54422218  0.51338894    -0.15900
F1821       F  0.34625128  0.47976533  0.57193961    -0.15900
F1822       F  0.26049257  0.44976820  0.58174769    -0.13600
C1823       C  0.43726191  0.76921775  0.56637578     0.24400
C1824       C  0.40643101  0.75821115  0.54576538    -0.23700
C1825       C  0.39829531  0.72426787  0.52813619     0.19300
C1826       C  0.41792405  0.69929571  0.53257444     0.24400
C1827       C  0.44492146  0.70724848  0.55524847    -0.23600
C1828       C  0.45583108  0.74354235  0.57140397     0.19300
F1829       F  0.48295117  0.75303180  0.59273845    -0.13600
F1830       F  0.44683545  0.80305299  0.58300024    -0.15900
F1831       F  0.40717154  0.66482708  0.51621584    -0.15900
F1832       F  0.36868593  0.71301617  0.50810641    -0.13600
C1833       C  0.64176180  0.67051906  0.56198737     0.24400
C1834       C  0.61323113  0.68277066  0.57255691    -0.23700
C1835       C  0.62873619  0.71616472  0.59197003     0.19300
C1836       C  0.67102971  0.73385580  0.60259317     0.24400
C1837       C  0.69847905  0.71849121  0.59367494    -0.23600
C1838       C  0.68364386  0.68822812  0.57200707     0.19300
F1839       F  0.70897489  0.67398810  0.56078098    -0.13600
F1840       F  0.62782427  0.63857875  0.54314582    -0.15900
F1841       F  0.68415453  0.76426536  0.62233340    -0.15900
F1842       F  0.60205545  0.72981264  0.60167309    -0.13600
C1843       C  0.47021052  0.46226148  0.53465250     0.24400
C1844       C  0.49233863  0.50599538  0.52734712    -0.23700
C1845       C  0.51100591  0.51714502  0.50127250     0.19300
C1846       C  0.50823704  0.48540338  0.48329990     0.24400
C1847       C  0.48631595  0.44160231  0.49072692    -0.23600
C1848       C  0.46699306  0.43053217  0.51661928     0.19300
F1849       F  0.44462247  0.38876744  0.52471969    -0.13600
F1850       F  0.45073352  0.44980400  0.55916258    -0.15900
F1851       F  0.52753591  0.49784932  0.45873113    -0.15900
F1852       F  0.53239889  0.55891885  0.49307124    -0.13600
C1853       C  0.31955190  0.45607250  0.66748550     0.24400
C1854       C  0.34131884  0.45357167  0.69034320    -0.23700
C1855       C  0.38481123  0.46496919  0.68817452     0.19300
C1856       C  0.40757547  0.48309630  0.66430379     0.24400
C1857       C  0.38748184  0.49190320  0.64267081    -0.23600
C1858       C  0.34262919  0.47598429  0.64396755     0.19300
F1859       F  0.32187827  0.48359436  0.62368829    -0.13600
F1860       F  0.27733630  0.44502516  0.66922532    -0.15900
F1861       F  0.45057041  0.49721697  0.66390523    -0.15900
F1862       F  0.40637717  0.46293101  0.71017572    -0.13600
C1863       C  0.54776517  0.68937068  0.67073577     0.24400
C1864       C  0.51040254  0.64912996  0.66733788    -0.23700
C1865       C  0.47998506  0.63226312  0.68832771     0.19300
C1866       C  0.48349071  0.65792802  0.71054193     0.24400
C1867       C  0.51794568  0.70056454  0.71220360    -0.23600
C1868       C  0.55156619  0.71515654  0.69313559     0.19300
F1869       F  0.58554402  0.75599193  0.69451145    -0.13600
F1870       F  0.57837333  0.70540586  0.65121274    -0.15900
F1871       F  0.45161499  0.64224260  0.72940744    -0.15900
F1872       F  0.44502066  0.59207899  0.68615727    -0.13600
loop_ 
_geom_bond_atom_site_label_1 
_geom_bond_atom_site_label_2 
_geom_bond_distance 
_geom_bond_site_symmetry_2 
_ccdc_geom_bond_type 
O1           C16   1.274       .  A
O1           Al9   1.937       .  S
C2           O12   1.262       .  A
C2            O3   1.260       .  A
C2         C1864   1.467       .  S
O3           Al5   1.883       .  S
O4            C6   1.259       .  A
O4           Al5   1.919       .  S
Al5          O13   1.895       .  S
Al5          O15   1.898       .  S
Al5          O14   1.773       .  S
C6           O19   1.252       .  A
C6         C1827   1.480       .  S
O7           C17   1.277       .  A
O7           Al9   1.945       .  S
O8           C21   1.263       .  A
O8          Al18   1.925       .  S
Al9          O22   1.904       .  S
Al9          O19   1.900       .  S
Al9          O14   1.786       .  S
O10          C17   1.270       .  A
O10         Al18   1.912       .  S
O11          C20   1.258       .  A
O11         Al18   1.898       .  S
O12         Al18   1.913       .  S
O13          C20   1.258       .  A
O14         Al18   1.778       .  S
O15          C16   1.267       .  A
C16        C1817   1.468       .  S
C17        C1834   1.481       .  S
C20        C1857   1.484       .  S
C21          O22   1.254       .  A
C21        C1844   1.491       .  S
O23          C38   1.279       .  A
O23         Al31   1.953       .  S
C24          O34   1.264       .  A
C24          O25   1.259       .  A
C24        C1804   1.466       .  S
O25         Al27   1.876       .  S
O26          C28   1.258       .  A
O26         Al27   1.913       .  S
Al27         O35   1.881       .  S
Al27         O37   1.900       .  S
Al27         O36   1.765       .  S
C28          O41   1.257       .  A
C28        C1784   1.493       .  S
O29          C39   1.285       .  A
O29         Al31   1.984       .  S
O30          C43   1.265       .  A
O30         Al40   1.930       .  S
Al31         O44   1.925       .  S
Al31         O41   1.932       .  S
Al31         O36   1.777       .  S
O32          C39   1.266       .  A
O32         Al40   1.904       .  S
O33          C42   1.256       .  A
O33         Al40   1.895       .  S
O34         Al40   1.921       .  S
O35          C42   1.257       .  A
O36         Al40   1.780       .  S
O37          C38   1.266       .  A
C38        C1767   1.475       .  S
C39        C1837   1.509       .  S
C42        C1797   1.482       .  S
C43          O44   1.262       .  A
C43        C1774   1.500       .  S
O45          C60   1.251       .  A
O45         Al53   1.867       .  S
C46          O56   1.264       .  A
C46          O47   1.270       .  A
C46        C1744   1.464       .  S
O47         Al49   1.945       .  S
O48          C50   1.252       .  A
O48         Al49   1.851       .  S
Al49         O57   1.903       .  S
Al49         O59   1.944       .  S
Al49         O58   1.785       .  S
C50          O63   1.276       .  A
C50        C1734   1.482       .  S
O51          C61   1.250       .  A
O51         Al53   1.896       .  S
O52          C65   1.254       .  A
O52         Al62   1.821       .  S
Al53         O66   2.002       .  S
Al53         O63   1.973       .  S
Al53         O58   1.789       .  S
O54          C61   1.258       .  A
O54         Al62   1.921       .  S
O55          C64   1.259       .  A
O55         Al62   1.906       .  S
O56         Al62   1.876       .  S
O57          C64   1.257       .  A
O58         Al62   1.778       .  S
O59          C60   1.266       .  A
C60        C1777   1.488       .  S
C61        C1724   1.472       .  S
C64        C1754   1.459       .  S
C65          O66   1.282       .  A
C65        C1714   1.483       .  S
O67          C82   1.255       .  A
O67         Al75   1.885       .  S
C68          O78   1.273       .  A
C68          O69   1.277       .  A
C68        C1704   1.454       .  S
O69         Al71   1.940       .  S
O70          C72   1.249       .  A
O70         Al71   1.844       .  S
Al71         O79   1.905       .  S
Al71         O81   1.910       .  S
Al71         O80   1.782       .  S
C72          O85   1.272       .  A
C72        C1737   1.502       .  S
O73          C83   1.254       .  A
O73         Al75   1.926       .  S
O74          C87   1.267       .  A
O74         Al84   1.854       .  S
Al75         O88   1.987       .  S
Al75         O85   1.967       .  S
Al75         O80   1.789       .  S
O76          C83   1.254       .  A
O76         Al84   1.912       .  S
O77          C86   1.248       .  A
O77         Al84   1.889       .  S
O78         Al84   1.877       .  S
O79          C86   1.250       .  A
O80         Al84   1.774       .  S
O81          C82   1.262       .  A
C82        C1674   1.493       .  S
C83        C1687   1.497       .  S
C86        C1697   1.466       .  S
C87          O88   1.287       .  A
C87        C1667   1.475       .  S
O89         C104   1.277       .  A
O89         Al97   1.955       .  S
C90         O100   1.261       .  A
C90          O91   1.257       .  A
C90        C1644   1.456   1_556  S
O91         Al93   1.867       .  S
O92          C94   1.261       .  A
O92         Al93   1.925   1_545  S
Al93        O101   1.885       .  S
Al93        O103   1.900       .  S
Al93        O102   1.771       .  S
C94         O107   1.256   1_545  A
C94        C1627   1.488       .  S
O95         C105   1.282       .  A
O95         Al97   1.964       .  S
O96         C109   1.260       .  A
O96        Al106   1.925       .  S
Al97        O110   1.899       .  S
Al97        O107   1.920       .  S
Al97        O102   1.775       .  S
O98         C105   1.270       .  A
O98        Al106   1.910       .  S
O99         C108   1.257       .  A
O99        Al106   1.889       .  S
O100       Al106   1.904       .  S
O101        C108   1.258       .  A
O102       Al106   1.782       .  S
O103        C104   1.264       .  A
C104       C1617   1.477       .  S
C105       C1634   1.491   1_565  S
C108       C1654   1.480       .  S
C109        O110   1.255       .  A
C109       C1677   1.481       .  S
O111        C126   1.274       .  A
O111       Al119   1.944       .  S
C112        O122   1.267       .  A
C112        O113   1.262       .  A
C112       C1604   1.472       .  S
O113       Al115   1.890       .  S
O114        C116   1.260       .  A
O114       Al115   1.915       .  S
Al115       O123   1.904       .  S
Al115       O125   1.899       .  S
Al115       O124   1.773       .  S
C116        O129   1.260       .  A
C116       C1584   1.490       .  S
O117        C127   1.284       .  A
O117       Al119   1.988       .  S
O118        C131   1.266       .  A
O118       Al128   1.930       .  S
Al119       O132   1.930       .  S
Al119       O129   1.935       .  S
Al119       O124   1.778       .  S
O120        C127   1.263       .  A
O120       Al128   1.893       .  S
O121        C130   1.254       .  A
O121       Al128   1.877       .  S
O122       Al128   1.921       .  S
O123        C130   1.260       .  A
O124       Al128   1.773       .  S
O125        C126   1.264       .  A
C126       C1564   1.471       .  S
C127       C1637   1.513       .  S
C130       C1597   1.481       .  S
C131        O132   1.264       .  A
C131       C1574   1.501       .  S
O133        C148   1.252       .  A
O133       Al141   1.864       .  S
C134        O144   1.269       .  A
C134        O135   1.269       .  A
C134       C1544   1.456       .  S
O135       Al137   1.926       .  S
O136        C138   1.251       .  A
O136       Al137   1.851       .  S
Al137       O145   1.912       .  S
Al137       O147   1.925       .  S
Al137       O146   1.787       .  S
C138        O151   1.273       .  A
C138       C1534   1.478       .  S
O139        C149   1.251       .  A
O139       Al141   1.908       .  S
O140        C153   1.260       .  A
O140       Al150   1.840       .  S
Al141       O154   2.000       .  S
Al141       O151   1.963       .  S
Al141       O146   1.790       .  S
O142        C149   1.257       .  A
O142       Al150   1.913       .  S
O143        C152   1.255       .  A
O143       Al150   1.896       .  S
O144       Al150   1.878       .  S
O145        C152   1.258       .  A
O146       Al150   1.771       .  S
O147        C148   1.263       .  A
C148       C1517   1.483       .  S
C149       C1524   1.484       .  S
C152       C1557   1.465       .  S
C153        O154   1.284       .  A
C153       C1504   1.483       .  S
O155        C170   1.255       .  A
O155       Al163   1.910       .  S
C156        O166   1.257       .  A
C156        O157   1.260       .  A
C156       C1494   1.458       .  S
O157       Al159   1.899       .  S
O158        C160   1.271       .  A
O158       Al159   1.912       .  S
Al159       O167   1.882       .  S
Al159       O169   1.926       .  S
Al159       O168   1.777       .  S
C160        O173   1.283       .  A
C160       C1537   1.497       .  S
O161        C171   1.255       .  A
O161       Al163   1.921       .  S
O162        C175   1.267       .  A
O162       Al172   1.904       .  S
Al163       O176   1.949       .  S
Al163       O173   1.954       .  S
Al163       O168   1.778       .  S
O164        C171   1.260       .  A
O164       Al172   1.928       .  S
O165        C174   1.261       .  A
O165       Al172   1.895       .  S
O166       Al172   1.875       .  S
O167        C174   1.256       .  A
O168       Al172   1.770       .  S
O169        C170   1.261       .  A
C170       C1847   1.494       .  S
C171       C1477   1.488       .  S
C174       C1487   1.483       .  S
C175        O176   1.279       .  A
C175       C1467   1.473       .  S
O177        C192   1.278       .  A
O177       Al185   1.948       .  S
C178        O188   1.259       .  A
C178        O179   1.258       .  A
C178       C1454   1.459       .  S
O179       Al181   1.873       .  S
O180        C182   1.260       .  A
O180       Al181   1.925       .  S
Al181       O189   1.881       .  S
Al181       O191   1.914       .  S
Al181       O190   1.770       .  S
C182        O195   1.251       .  A
C182       C1424   1.478       .  S
O183        C193   1.279       .  A
O183       Al185   1.942       .  S
O184        C197   1.259       .  A
O184       Al194   1.927       .  S
Al185       O198   1.882       .  S
Al185       O195   1.896       .  S
Al185       O190   1.778       .  S
O186        C193   1.272       .  A
O186       Al194   1.908       .  S
O187        C196   1.258       .  A
O187       Al194   1.889       .  S
O188       Al194   1.903       .  S
O189        C196   1.258       .  A
O190       Al194   1.780       .  S
O191        C192   1.268       .  A
C192       C1404   1.479       .  S
C193       C1434   1.475       .  S
C196       C1444   1.478       .  S
C197        O198   1.249       .  A
C197       C1417   1.485       .  S
O199        C214   1.273       .  A
O199       Al207   1.937       .  S
C200        O210   1.267       .  A
C200        O201   1.264       .  A
C200       C1397   1.468       .  S
O201       Al203   1.899       .  S
O202        C204   1.259       .  A
O202       Al203   1.913       .  S
Al203       O211   1.896       .  S
Al203       O213   1.889       .  S
Al203       O212   1.766       .  S
C204        O217   1.257       .  A
C204       C1374   1.492       .  S
O205        C215   1.279       .  A
O205       Al207   1.982       .  S
O206        C219   1.268       .  A
O206       Al216   1.916       .  S
Al207       O220   1.931       .  S
Al207       O217   1.918       .  S
Al207       O212   1.778       .  S
O208        C215   1.258       .  A
O208       Al216   1.894       .  S
O209        C218   1.253       .  A
O209       Al216   1.883       .  S
O210       Al216   1.921       .  S
O211        C218   1.256       .  A
O212       Al216   1.780       .  S
O213        C214   1.265       .  A
C214       C1364   1.468       .  S
C215       C1437   1.503       .  S
C218       C1384   1.474       .  S
C219        O220   1.267       .  A
C219       C1514   1.493       .  S
O221        C236   1.254       .  A
O221       Al229   1.902       .  S
C222        O232   1.260       .  A
C222        O223   1.261   1_565  A
C222       C1354   1.467       .  S
O223       Al225   1.907       .  S
O224        C226   1.269   1_545  A
O224       Al225   1.906       .  S
Al225       O233   1.878       .  S
Al225       O235   1.919       .  S
Al225       O234   1.774       .  S
C226        O239   1.281       .  A
C226       C1334   1.491       .  S
O227        C237   1.253       .  A
O227       Al229   1.903   1_565  S
O228        C241   1.268       .  A
O228       Al238   1.909       .  S
Al229       O242   1.946       .  S
Al229       O239   1.950   1_545  S
Al229       O234   1.780       .  S
O230        C237   1.260       .  A
O230       Al238   1.924   1_565  S
O231        C240   1.260       .  A
O231       Al238   1.892       .  S
O232       Al238   1.888   1_565  S
O233        C240   1.255       .  A
O234       Al238   1.768       .  S
O235        C236   1.261       .  A
C236       C1414   1.484       .  S
C237       C1327   1.479       .  S
C240       C1344   1.480       .  S
C241        O242   1.278       .  A
C241       C1314   1.473       .  S
O243        C258   1.257       .  A
O243       Al251   1.888       .  S
C244        O254   1.267       .  A
C244        O245   1.272       .  A
C244       C1297   1.466       .  S
O245       Al247   1.946       .  S
O246        C248   1.249       .  A
O246       Al247   1.847       .  S
Al247       O255   1.910       .  S
Al247       O257   1.936       .  S
Al247       O256   1.786       .  S
C248        O261   1.269       .  A
C248       C1337   1.472       .  S
O249        C259   1.256       .  A
O249       Al251   1.923       .  S
O250        C263   1.261       .  A
O250       Al260   1.860       .  S
Al251       O264   1.988       .  S
Al251       O261   1.952       .  S
Al251       O256   1.795       .  S
O252        C259   1.259       .  A
O252       Al260   1.916       .  S
O253        C262   1.254       .  A
O253       Al260   1.895       .  S
O254       Al260   1.875       .  S
O255        C262   1.256       .  A
O256       Al260   1.770       .  S
O257        C258   1.268       .  A
C258       C1577   1.494       .  S
C259       C1284   1.488       .  S
C262       C1307   1.466       .  S
C263        O264   1.281       .  A
C263       C1274   1.485       .  S
O265        C280   1.260       .  A
O265       Al273   1.922       .  S
C266        O276   1.258       .  A
C266        O267   1.260       .  A
C266       C1447   1.454       .  S
O267       Al269   1.902       .  S
O268        C270   1.265       .  A
O268       Al269   1.901       .  S
Al269       O277   1.868       .  S
Al269       O279   1.915       .  S
Al269       O278   1.781       .  S
C270        O283   1.287       .  A
C270       C1254   1.511       .  S
O271        C281   1.253       .  A
O271       Al273   1.918       .  S
O272        C285   1.267       .  A
O272       Al282   1.897       .  S
Al273       O286   1.958       .  S
Al273       O283   1.989       .  S
Al273       O278   1.775       .  S
O274        C281   1.258       .  A
O274       Al282   1.923       .  S
O275        C284   1.258       .  A
O275       Al282   1.892       .  S
O276       Al282   1.871       .  S
O277        C284   1.252       .  A
O278       Al282   1.772       .  S
O279        C280   1.261       .  A
C280       C1234   1.489       .  S
C281       C1247   1.491       .  S
C284       C1267   1.475       .  S
C285        O286   1.282       .  A
C285       C1474   1.477       .  S
O287        C302   1.249       .  A
O287       Al295   1.894       .  S
C288        O298   1.254       .  A
C288        O289   1.261       .  A
C288       C1224   1.468       .  S
O289       Al291   1.922       .  S
O290        C292   1.274       .  A
O290       Al291   1.922       .  S
Al291       O299   1.906       .  S
Al291       O301   1.941       .  S
Al291       O300   1.782       .  S
C292        O305   1.282       .  A
C292       C1257   1.486   1_565  S
O293        C303   1.253   1_565  A
O293       Al295   1.919       .  S
O294        C307   1.266       .  A
O294       Al304   1.905       .  S
Al295       O308   1.962       .  S
Al295       O305   1.951       .  S
Al295       O300   1.783       .  S
O296        C303   1.258       .  A
O296       Al304   1.915   1_545  S
O297        C306   1.260       .  A
O297       Al304   1.880       .  S
O298       Al304   1.857       .  S
O299        C306   1.261       .  A
O300       Al304   1.767       .  S
O301        C302   1.260       .  A
C302       C1217   1.487       .  S
C303       C1507   1.477       .  S
C306       C1807   1.486       .  S
C307        O308   1.281       .  A
C307       C1204   1.482       .  S
O309        C324   1.250       .  A
O309       Al317   1.852       .  S
C310        O320   1.266       .  A
C310        O311   1.284       .  A
C310       C1197   1.482       .  S
O311       Al313   1.976       .  S
O312        C314   1.250       .  A
O312       Al313   1.847       .  S
Al313       O321   1.910       .  S
Al313       O323   1.943       .  S
Al313       O322   1.780       .  S
C314        O327   1.275       .  A
C314       C1174   1.488       .  S
O315        C325   1.250       .  A
O315       Al317   1.911       .  S
O316        C329   1.261       .  A
O316       Al326   1.820       .  S
Al317       O330   2.018       .  S
Al317       O327   1.973       .  S
Al317       O322   1.778       .  S
O318        C325   1.252       .  A
O318       Al326   1.921       .  S
O319        C328   1.254       .  A
O319       Al326   1.905       .  S
O320       Al326   1.846       .  S
O321        C328   1.252       .  A
O322       Al326   1.771       .  S
O323        C324   1.268       .  A
C324       C1187   1.479       .  S
C325       C1277   1.478       .  S
C328       C1394   1.473       .  S
C329        O330   1.292       .  A
C329       C1167   1.479       .  S
O331        C346   1.255       .  A
O331       Al339   1.908       .  S
C332        O342   1.258       .  A
C332        O333   1.260       .  A
C332       C1657   1.459       .  S
O333       Al335   1.906       .  S
O334        C336   1.271       .  A
O334       Al335   1.915       .  S
Al335       O343   1.895       .  S
Al335       O345   1.937       .  S
Al335       O344   1.780       .  S
C336        O349   1.285   1_655  A
C336       C1177   1.500   1_655  S
O337        C347   1.255       .  A
O337       Al339   1.923   1_455  S
O338        C351   1.268       .  A
O338       Al348   1.904       .  S
Al339       O352   1.950       .  S
Al339       O349   1.961   1_655  S
Al339       O344   1.779       .  S
O340        C347   1.257       .  A
O340       Al348   1.923   1_455  S
O341        C350   1.257       .  A
O341       Al348   1.880       .  S
O342       Al348   1.872       .  S
O343        C350   1.257       .  A
O344       Al348   1.775       .  S
O345        C346   1.263       .  A
C346       C1134   1.499       .  S
C347       C1144   1.488       .  S
C350       C1154   1.484       .  S
C351        O352   1.279       .  A
C351       C1324   1.474       .  S
O353        C368   1.274       .  A
O353       Al361   1.934       .  S
C354        O364   1.263       .  A
C354        O355   1.258       .  A
C354       C1484   1.468       .  S
O355       Al357   1.873       .  S
O356        C358   1.260       .  A
O356       Al357   1.933       .  S
Al357       O365   1.904       .  S
Al357       O367   1.899       .  S
Al357       O366   1.778       .  S
C358        O371   1.252       .  A
C358       C1107   1.485       .  S
O359        C369   1.278       .  A
O359       Al361   1.938       .  S
O360        C373   1.262       .  A
O360       Al370   1.939       .  S
Al361       O374   1.900       .  S
Al361       O371   1.903       .  S
Al361       O366   1.786       .  S
O362        C369   1.270       .  A
O362       Al370   1.912       .  S
O363        C372   1.257       .  A
O363       Al370   1.886       .  S
O364       Al370   1.915       .  S
O365        C372   1.261       .  A
O366       Al370   1.778       .  S
O367        C368   1.268       .  A
C368       C1427   1.466       .  S
C369       C1117   1.475       .  S
C372       C1124   1.485       .  S
C373        O374   1.252       .  A
C373       C1137   1.497       .  S
O375        C390   1.279       .  A
O375       Al383   1.955       .  S
C376        O386   1.262       .  A
C376        O377   1.258       .  A
C376       C1094   1.465       .  S
O377       Al379   1.878       .  S
O378        C380   1.259       .  A
O378       Al379   1.916       .  S
Al379       O387   1.885       .  S
Al379       O389   1.907       .  S
Al379       O388   1.765       .  S
C380        O393   1.256       .  A
C380       C1367   1.476       .  S
O381        C391   1.283       .  A
O381       Al383   1.956       .  S
O382        C395   1.264       .  A
O382       Al392   1.937       .  S
Al383       O396   1.908       .  S
Al383       O393   1.920       .  S
Al383       O388   1.776       .  S
O384        C391   1.272       .  A
O384       Al392   1.916       .  S
O385        C394   1.260       .  A
O385       Al392   1.898       .  S
O386       Al392   1.912       .  S
O387        C394   1.258       .  A
O388       Al392   1.771       .  S
O389        C390   1.266       .  A
C390       C1087   1.476       .  S
C391       C1114   1.502       .  S
C394       C1294   1.478       .  S
C395        O396   1.255       .  A
C395       C1214   1.491       .  S
O397        C412   1.278       .  A
O397       Al405   1.956       .  S
C398        O408   1.260   1_655  A
C398        O399   1.256       .  A
C398       C1347   1.466   1_556  S
O399       Al401   1.873   1_655  S
O400        C402   1.262       .  A
O400       Al401   1.933   1_655  S
Al401       O409   1.901       .  S
Al401       O411   1.899       .  S
Al401       O410   1.780       .  S
C402        O415   1.254       .  A
C402       C1054   1.483       .  S
O403        C413   1.278       .  A
O403       Al405   1.946   1_655  S
O404        C417   1.262       .  A
O404       Al414   1.932       .  S
Al405       O418   1.895       .  S
Al405       O415   1.900   1_455  S
Al405       O410   1.780       .  S
O406        C413   1.267   1_455  A
O406       Al414   1.902       .  S
O407        C416   1.257       .  A
O407       Al414   1.883       .  S
O408       Al414   1.912       .  S
O409        C416   1.262       .  A
O410       Al414   1.782       .  S
O411        C412   1.264       .  A
C412       C1624   1.478       .  S
C413       C1064   1.477       .  S
C416       C1077   1.483       .  S
C417        O418   1.251       .  A
C417       C1044   1.497       .  S
O419        C434   1.284       .  A
O419       Al427   1.941       .  S
C420        O430   1.261       .  A
C420        O421   1.261       .  A
C420       C1037   1.461       .  S
O421       Al423   1.883       .  S
O422        C424   1.254       .  A
O422       Al423   1.928       .  S
Al423       O431   1.893       .  S
Al423       O433   1.919       .  S
Al423       O432   1.769       .  S
C424        O437   1.247       .  A
C424       C1567   1.483       .  S
O425        C435   1.290       .  A
O425       Al427   1.954       .  S
O426        C439   1.257       .  A
O426       Al436   1.932       .  S
Al427       O440   1.900       .  S
Al427       O437   1.901       .  S
Al427       O432   1.774       .  S
O428        C435   1.276       .  A
O428       Al436   1.917       .  S
O429        C438   1.255       .  A
O429       Al436   1.875       .  S
O430       Al436   1.906       .  S
O431        C438   1.258       .  A
O432       Al436   1.767       .  S
O433        C434   1.276       .  A
C434       C1024   1.471       .  S
C435       C1067   1.502       .  S
C438       C1747   1.481       .  S
C439        O440   1.249       .  A
C439       C1184   1.492       .  S
O441        C456   1.244       .  A
O441       Al449   1.888       .  S
C442        O452   1.256       .  A
C442        O443   1.263       .  A
C442       C1854   1.464       .  S
O443       Al445   1.929       .  S
O444        C446   1.276       .  A
O444       Al445   1.897       .  S
Al445       O453   1.873       .  S
Al445       O455   1.930       .  S
Al445       O454   1.774       .  S
C446        O459   1.294       .  A
C446       C1004   1.501       .  S
O447        C457   1.242       .  A
O447       Al449   1.887       .  S
O448        C461   1.274       .  A
O448       Al458   1.887       .  S
Al449       O462   1.976       .  S
Al449       O459   1.977       .  S
Al449       O454   1.759       .  S
O450        C457   1.252       .  A
O450       Al458   1.924       .  S
O451        C460   1.262       .  A
O451       Al458   1.906       .  S
O452       Al458   1.870       .  S
O453        C460   1.255       .  A
O454       Al458   1.764       .  S
O455        C456   1.254       .  A
C456       C1047   1.498       .  S
C457        C994   1.488       .  S
C460       C1014   1.467       .  S
C461        O462   1.294       .  A
C461       C1684   1.484       .  S
O463        C478   1.248       .  A
O463       Al471   1.892       .  S
C464        O474   1.254       .  A
C464        O465   1.264       .  A
C464        C984   1.460       .  S
O465       Al467   1.926       .  S
O466        C468   1.273       .  A
O466       Al467   1.901       .  S
Al467       O475   1.894       .  S
Al467       O477   1.944       .  S
Al467       O476   1.779       .  S
C468        O481   1.291       .  A
C468       C1007   1.497       .  S
O469        C479   1.246       .  A
O469       Al471   1.908       .  S
O470        C483   1.272       .  A
O470       Al480   1.904       .  S
Al471       O484   1.960       .  S
Al471       O481   1.977       .  S
Al471       O476   1.776       .  S
O472        C479   1.250       .  A
O472       Al480   1.907       .  S
O473        C482   1.257       .  A
O473       Al480   1.885       .  S
O474       Al480   1.854       .  S
O475        C482   1.256       .  A
O476       Al480   1.767       .  S
O477        C478   1.262       .  A
C478        C974   1.493       .  S
C479       C1717   1.477       .  S
C482       C1607   1.484       .  S
C483        O484   1.287       .  A
C483        C964   1.479       .  S
O485        C500   1.279       .  A
O485       Al493   1.952   1_545  S
C486        O496   1.262   1_565  A
C486        O487   1.263       .  A
C486        C957   1.466       .  S
O487       Al489   1.899       .  S
O488        C490   1.260       .  A
O488       Al489   1.920       .  S
Al489       O497   1.871   1_565  S
Al489       O499   1.916   1_565  S
Al489       O498   1.769   1_565  S
C490        O503   1.257       .  A
C490       C1764   1.485       .  S
O491        C501   1.286       .  A
O491       Al493   1.974       .  S
O492        C505   1.265       .  A
O492       Al502   1.935       .  S
Al493       O506   1.911   1_565  S
Al493       O503   1.924       .  S
Al493       O498   1.773   1_565  S
O494        C501   1.268   1_545  A
O494       Al502   1.896       .  S
O495        C504   1.257       .  A
O495       Al502   1.887       .  S
O496       Al502   1.906       .  S
O497        C504   1.255       .  A
O498       Al502   1.772       .  S
O499        C500   1.268       .  A
C500        C937   1.479       .  S
C501        C947   1.502       .  S
C504       C1547   1.468       .  S
C505        O506   1.258       .  A
C505        C977   1.494       .  S
O507        C522   1.287       .  A
O507       Al515   1.929       .  S
C508        O518   1.262       .  A
C508        O509   1.265       .  A
C508       C1694   1.470       .  S
O509       Al511   1.898       .  S
O510        C512   1.248       .  A
O510       Al511   1.916       .  S
Al511       O519   1.873       .  S
Al511       O521   1.930       .  S
Al511       O520   1.755       .  S
C512        O525   1.243       .  A
C512        C914   1.486       .  S
O513        C523   1.288       .  A
O513       Al515   1.945       .  S
O514        C527   1.256       .  A
O514       Al524   1.928       .  S
Al515       O528   1.901       .  S
Al515       O525   1.896       .  S
Al515       O520   1.770       .  S
O516        C523   1.279       .  A
O516       Al524   1.913       .  S
O517        C526   1.259       .  A
O517       Al524   1.910       .  S
O518       Al524   1.905       .  S
O519        C526   1.255       .  A
O520       Al524   1.771       .  S
O521        C522   1.284       .  A
C522       C1824   1.470       .  S
C523        C944   1.480       .  S
C526        C927   1.474       .  S
C527        O528   1.250       .  A
C527       C1237   1.490       .  S
O529        C544   1.245       .  A
O529       Al537   1.847       .  S
C530        O540   1.266       .  A
C530        O531   1.281       .  A
C530        C924   1.489       .  S
O531       Al533   1.976       .  S
O532        C534   1.254       .  A
O532       Al533   1.850       .  S
Al533       O541   1.903       .  S
Al533       O543   1.964       .  S
Al533       O542   1.784       .  S
C534        O547   1.277       .  A
C534        C904   1.481       .  S
O535        C545   1.245       .  A
O535       Al537   1.892       .  S
O536        C549   1.257       .  A
O536       Al546   1.811       .  S
Al537       O550   2.007       .  S
Al537       O547   1.966       .  S
Al537       O542   1.780       .  S
O538        C545   1.250       .  A
O538       Al546   1.910       .  S
O539        C548   1.258       .  A
O539       Al546   1.910       .  S
O540       Al546   1.867       .  S
O541        C548   1.256       .  A
O542       Al546   1.780       .  S
O543        C544   1.267       .  A
C544        C894   1.496       .  S
C545       C1664   1.472       .  S
C548       C1867   1.472       .  S
C549        O550   1.289       .  A
C549        C997   1.476       .  S
O551        C566   1.253       .  A
O551       Al559   1.913       .  S
C552        O562   1.259       .  A
C552        O553   1.258       .  A
C552       C1594   1.460       .  S
O553       Al555   1.900       .  S
O554        C556   1.275       .  A
O554       Al555   1.921       .  S
Al555       O563   1.889       .  S
Al555       O565   1.930       .  S
Al555       O564   1.778       .  S
C556        O569   1.284       .  A
C556        C907   1.495       .  S
O557        C567   1.252       .  A
O557       Al559   1.916       .  S
O558        C571   1.272       .  A
O558       Al568   1.907       .  S
Al559       O572   1.937       .  S
Al559       O569   1.944       .  S
Al559       O564   1.780       .  S
O560        C567   1.257       .  A
O560       Al568   1.930       .  S
O561        C570   1.259       .  A
O561       Al568   1.891       .  S
O562       Al568   1.880       .  S
O563        C570   1.257       .  A
O564       Al568   1.772       .  S
O565        C566   1.258       .  A
C566        C884   1.501       .  S
C567        C967   1.493       .  S
C570       C1034   1.483       .  S
C571        O572   1.280       .  A
C571       C1727   1.466       .  S
O573        C588   1.276       .  A
O573       Al581   1.940       .  S
C574        O584   1.262       .  A
C574        O575   1.259       .  A
C574       C1017   1.459       .  S
O575       Al577   1.880       .  S
O576        C578   1.258       .  A
O576       Al577   1.916       .  S
Al577       O585   1.893       .  S
Al577       O587   1.910       .  S
Al577       O586   1.773       .  S
C578        O591   1.255       .  A
C578       C1814   1.477       .  S
O579        C589   1.282       .  A
O579       Al581   1.959       .  S
O580        C593   1.263       .  A
O580       Al590   1.938       .  S
Al581       O594   1.908       .  S
Al581       O591   1.917       .  S
Al581       O586   1.777       .  S
O582        C589   1.269       .  A
O582       Al590   1.901       .  S
O583        C592   1.257       .  A
O583       Al590   1.878       .  S
O584       Al590   1.905       .  S
O585        C592   1.259       .  A
O586       Al590   1.769       .  S
O587        C588   1.268       .  A
C588        C917   1.472       .  S
C589        C874   1.498       .  S
C592       C1707   1.480       .  S
C593        O594   1.259       .  A
C593        C867   1.497       .  S
O595        C610   1.286       .  A
O595       Al603   1.952       .  S
C596        O606   1.263   1_455  A
C596        O597   1.258       .  A
C596       C1554   1.473       .  S
O597       Al599   1.880   1_455  S
O598        C600   1.251       .  A
O598       Al599   1.921   1_455  S
Al599       O607   1.885       .  S
Al599       O609   1.921       .  S
Al599       O608   1.771       .  S
C600        O613   1.245       .  A
C600        C934   1.488       .  S
O601        C611   1.287       .  A
O601       Al603   1.956   1_455  S
O602        C615   1.258       .  A
O602       Al612   1.942       .  S
Al603       O616   1.887       .  S
Al603       O613   1.894   1_655  S
Al603       O608   1.776       .  S
O604        C611   1.275   1_655  A
O604       Al612   1.899       .  S
O605        C614   1.256       .  A
O605       Al612   1.893       .  S
O606       Al612   1.925       .  S
O607        C614   1.258       .  A
O608       Al612   1.785       .  S
O609        C610   1.277       .  A
C610       C1787   1.485       .  S
C611        C877   1.481       .  S
C614       C1227   1.481       .  S
C615        O616   1.246       .  A
C615        C887   1.501       .  S
O617        C632   1.282       .  A
O617       Al625   1.950       .  S
C618        O628   1.259       .  A
C618        O619   1.258       .  A
C618       C1757   1.461       .  S
O619       Al621   1.874       .  S
O620        C622   1.253       .  A
O620       Al621   1.921       .  S
Al621       O629   1.890       .  S
Al621       O631   1.913       .  S
Al621       O630   1.774       .  S
C622        O635   1.247       .  A
C622       C1027   1.481       .  S
O623        C633   1.282       .  A
O623       Al625   1.952       .  S
O624        C637   1.259       .  A
O624       Al634   1.931       .  S
Al625       O638   1.892       .  S
Al625       O635   1.891       .  S
Al625       O630   1.780       .  S
O626        C633   1.273       .  A
O626       Al634   1.919       .  S
O627        C636   1.256       .  A
O627       Al634   1.894       .  S
O628       Al634   1.901       .  S
O629        C636   1.257       .  A
O630       Al634   1.786       .  S
O631        C632   1.272       .  A
C632       C1587   1.481       .  S
C633        C847   1.485       .  S
C636        C987   1.483       .  S
C637        O638   1.251       .  A
C637        C854   1.490       .  S
O639        C654   1.281       .  A
O639       Al647   1.946       .  S
C640        O650   1.263       .  A
C640        O641   1.261       .  A
C640       C1157   1.464       .  S
O641       Al643   1.879       .  S
O642        C644   1.258       .  A
O642       Al643   1.934       .  S
Al643       O651   1.889       .  S
Al643       O653   1.907       .  S
Al643       O652   1.771       .  S
C644        O657   1.252       .  A
C644       C1614   1.490       .  S
O645        C655   1.286       .  A
O645       Al647   1.970       .  S
O646        C659   1.266       .  A
O646       Al656   1.951       .  S
Al647       O660   1.919       .  S
Al647       O657   1.908       .  S
Al647       O652   1.777       .  S
O648        C655   1.271       .  A
O648       Al656   1.916       .  S
O649        C658   1.258       .  A
O649       Al656   1.892       .  S
O650       Al656   1.914       .  S
O651        C658   1.258       .  A
O652       Al656   1.775       .  S
O653        C654   1.271       .  A
C654       C1057   1.472       .  S
C655        C844   1.509       .  S
C658       C1357   1.486       .  S
C659        O660   1.257       .  A
C659        C897   1.508       .  S
O661        C676   1.247       .  A
O661       Al669   1.900       .  S
C662        O672   1.258       .  A
C662        O663   1.262       .  A
C662       C1387   1.454       .  S
O663       Al665   1.914       .  S
O664        C666   1.276       .  A
O664       Al665   1.902       .  S
Al665       O673   1.878       .  S
Al665       O675   1.922       .  S
Al665       O674   1.770       .  S
C666        O679   1.294       .  A
C666        C834   1.506       .  S
O667        C677   1.240       .  A
O667       Al669   1.884       .  S
O668        C681   1.276       .  A
O668       Al678   1.887       .  S
Al669       O682   1.970       .  S
Al669       O679   1.978       .  S
Al669       O674   1.755       .  S
O670        C677   1.254       .  A
O670       Al678   1.936       .  S
O671        C680   1.261       .  A
O671       Al678   1.903       .  S
O672       Al678   1.864       .  S
O673        C680   1.254       .  A
O674       Al678   1.756       .  S
O675        C676   1.254       .  A
C676        C857   1.492       .  S
C677       C1164   1.487       .  S
C680       C1097   1.473       .  S
C681        O682   1.295       .  A
C681       C1287   1.478       .  S
O683        C698   1.249       .  A
O683       Al691   1.901       .  S
C684        O694   1.257       .  A
C684        O685   1.260       .  A
C684       C1074   1.459       .  S
O685       Al687   1.910       .  S
O686        C688   1.273       .  A
O686       Al687   1.893       .  S
Al687       O695   1.862       .  S
Al687       O697   1.925       .  S
Al687       O696   1.779       .  S
C688        O701   1.289       .  A
C688        C837   1.493       .  S
O689        C699   1.246       .  A
O689       Al691   1.898       .  S
O690        C703   1.271       .  A
O690       Al700   1.902       .  S
Al691       O704   1.959       .  S
Al691       O701   1.973       .  S
Al691       O696   1.774       .  S
O692        C699   1.254       .  A
O692       Al700   1.926       .  S
O693        C702   1.261       .  A
O693       Al700   1.899       .  S
O694       Al700   1.872       .  S
O695        C702   1.252       .  A
O696       Al700   1.774       .  S
O697        C698   1.253       .  A
C698        C827   1.497       .  S
C699       C1317   1.487       .  S
C702       C1647   1.471       .  S
C703        O704   1.287       .  A
C703       C1147   1.478       .  S
O705        C720   1.250       .  A
O705       Al713   1.899       .  S
C706        O716   1.257       .  A
C706        O707   1.262       .  A
C706       C1127   1.463       .  S
O707       Al709   1.917       .  S
O708        C710   1.274       .  A
O708       Al709   1.900       .  S
Al709       O717   1.878       .  S
Al709       O719   1.925       .  S
Al709       O718   1.781       .  S
C710        O723   1.289       .  A
C710        C814   1.488       .  S
O711        C721   1.245       .  A
O711       Al713   1.898       .  S
O712        C725   1.275       .  A
O712       Al722   1.910       .  S
Al713       O726   1.959       .  S
Al713       O723   1.968       .  S
Al713       O718   1.776       .  S
O714        C721   1.252       .  A
O714       Al722   1.922       .  S
O715        C724   1.259       .  A
O715       Al722   1.893       .  S
O716       Al722   1.875       .  S
O717        C724   1.254       .  A
O718       Al722   1.771       .  S
O719        C720   1.252       .  A
C720        C864   1.498       .  S
C721       C1464   1.487       .  S
C724       C1457   1.472       .  S
C725        O726   1.287       .  A
C725       C1244   1.482       .  S
O727        C742   1.260       .  A
O727       Al735   1.924       .  S
C728        O738   1.260       .  A
C728        O729   1.261   1_655  A
C728       C1794   1.459       .  S
O729       Al731   1.907       .  S
O730        C732   1.266   1_455  A
O730       Al731   1.903       .  S
Al731       O739   1.890       .  S
Al731       O741   1.919       .  S
Al731       O740   1.784       .  S
C732        O745   1.282       .  A
C732        C817   1.510       .  S
O733        C743   1.252       .  A
O733       Al735   1.905   1_655  S
O734        C747   1.267       .  A
O734       Al744   1.880       .  S
Al735       O748   1.958       .  S
Al735       O745   1.979   1_455  S
Al735       O740   1.778       .  S
O736        C743   1.262       .  A
O736       Al744   1.938   1_655  S
O737        C746   1.259       .  A
O737       Al744   1.894       .  S
O738       Al744   1.878   1_655  S
O739        C746   1.256       .  A
O740       Al744   1.766       .  S
O741        C742   1.262       .  A
C742        C804   1.495       .  S
C743       C1207   1.496       .  S
C746        C954   1.484       .  S
C747        O748   1.282       .  A
C747       C1527   1.475       .  S
O749        C764   1.293       .  A
O749       Al757   1.966       .  S
C750        O760   1.268       .  A
C750        O751   1.260       .  A
C750       C1304   1.478       .  S
O751       Al753   1.875       .  S
O752        C754   1.248       .  A
O752       Al753   1.920       .  S
Al753       O761   1.891       .  S
Al753       O763   1.907       .  S
Al753       O762   1.763       .  S
C754        O767   1.242       .  A
C754       C1084   1.488       .  S
O755        C765   1.291       .  A
O755       Al757   1.968       .  S
O756        C769   1.256       .  A
O756       Al766   1.930       .  S
Al757       O770   1.891       .  S
Al757       O767   1.887       .  S
Al757       O762   1.762       .  S
O758        C765   1.273       .  A
O758       Al766   1.895       .  S
O759        C768   1.254       .  A
O759       Al766   1.894       .  S
O760       Al766   1.940       .  S
O761        C768   1.258       .  A
O762       Al766   1.781       .  S
O763        C764   1.278       .  A
C764       C1377   1.486       .  S
C765        C794   1.484       .  S
C768       C1194   1.465       .  S
C769        O770   1.246       .  A
C769        C807   1.499       .  S
O771        C786   1.282       .  A
O771       Al779   1.953       .  S
C772        O782   1.259       .  A
C772        O773   1.260       .  A
C772       C1264   1.450       .  S
O773       Al775   1.877       .  S
O774        C776   1.257       .  A
O774       Al775   1.923       .  S
Al775       O783   1.886       .  S
Al775       O785   1.903       .  S
Al775       O784   1.769       .  S
C776        O789   1.253       .  A
C776       C1407   1.490       .  S
O777        C787   1.287       .  A
O777       Al779   1.988       .  S
O778        C791   1.262       .  A
O778       Al788   1.921       .  S
Al779       O792   1.928       .  S
Al779       O789   1.918       .  S
Al779       O784   1.773       .  S
O780        C787   1.266       .  A
O780       Al788   1.904       .  S
O781        C790   1.255       .  A
O781       Al788   1.879       .  S
O782       Al788   1.894       .  S
O783        C790   1.258       .  A
O784       Al788   1.778       .  S
O785        C786   1.269       .  A
C786       C1104   1.473       .  S
C787        C797   1.512       .  S
C790       C1497   1.479       .  S
C791        O792   1.262       .  A
C791        C824   1.495       .  S
C793        C794   1.399       .  A
C793        C798   1.396   1_565  A
C793        F800   1.359       .  S
C794        C795   1.411       .  A
C795        C796   1.418       .  A
C795        F802   1.355       .  S
C796        C797   1.412   1_565  A
C796        F801   1.357   1_565  S
C797        C798   1.422       .  A
C798        F799   1.358       .  S
C803        C804   1.407       .  A
C803        C808   1.402       .  A
C803        F810   1.358       .  S
C804        C805   1.413       .  A
C805        C806   1.404       .  A
C805        F812   1.357       .  S
C806        C807   1.407       .  A
C806        F811   1.357       .  S
C807        C808   1.417       .  A
C808        F809   1.358       .  S
C813        C814   1.400       .  A
C813        C818   1.393       .  A
C813        F820   1.359       .  S
C814        C815   1.412       .  A
C815        C816   1.421       .  A
C815        F822   1.357       .  S
C816        C817   1.415       .  A
C816        F821   1.357       .  S
C817        C818   1.419       .  A
C818        F819   1.358   1_655  S
C823        C824   1.413       .  A
C823        C828   1.404       .  A
C823        F830   1.358       .  S
C824        C825   1.407       .  A
C825        C826   1.402       .  A
C825        F832   1.358       .  S
C826        C827   1.414       .  A
C826        F831   1.358       .  S
C827        C828   1.409       .  A
C828        F829   1.357       .  S
C833        C834   1.415       .  A
C833        C838   1.423       .  A
C833        F840   1.357       .  S
C834        C835   1.414       .  A
C835        C836   1.391       .  A
C835        F842   1.359       .  S
C836        C837   1.403       .  A
C836        F841   1.359       .  S
C837        C838   1.414       .  A
C838        F839   1.357       .  S
C843        C844   1.421       .  A
C843        C848   1.397       .  A
C843        F850   1.358       .  S
C844        C845   1.412       .  A
C845        C846   1.416       .  A
C845        F852   1.357       .  S
C846        C847   1.411       .  A
C846        F851   1.356       .  S
C847        C848   1.397       .  A
C848        F849   1.358       .  S
C853        C854   1.413   1_554  A
C853        C858   1.398       .  A
C853        F860   1.358       .  S
C854        C855   1.406       .  A
C855        C856   1.404       .  A
C855        F862   1.358       .  S
C856        C857   1.416   1_556  A
C856        F861   1.358       .  S
C857        C858   1.405       .  A
C858        F859   1.358       .  S
C863        C864   1.409       .  A
C863        C868   1.401   1_655  A
C863        F870   1.357       .  S
C864        C865   1.414       .  A
C865        C866   1.405       .  A
C865        F872   1.359       .  S
C866        C867   1.408   1_655  A
C866        F871   1.357       .  S
C867        C868   1.414       .  A
C868        F869   1.359       .  S
C873        C874   1.412       .  A
C873        C878   1.416       .  A
C873        F880   1.357       .  S
C874        C875   1.414       .  A
C875        C876   1.391       .  A
C875        F882   1.359       .  S
C876        C877   1.402       .  A
C876        F881   1.359   1_455  S
C877        C878   1.410       .  A
C878        F879   1.357       .  S
C883        C884   1.407       .  A
C883        C888   1.403       .  A
C883        F890   1.358       .  S
C884        C885   1.416       .  A
C885        C886   1.407       .  A
C885        F892   1.358       .  S
C886        C887   1.407       .  A
C886        F891   1.357       .  S
C887        C888   1.417       .  A
C888        F889   1.358       .  S
C893        C894   1.402       .  A
C893        C898   1.410       .  A
C893        F900   1.357       .  S
C894        C895   1.415       .  A
C895        C896   1.405       .  A
C895        F902   1.359       .  S
C896        C897   1.408       .  A
C896        F901   1.358       .  S
C897        C898   1.421       .  A
C898        F899   1.357       .  S
C903        C904   1.415       .  A
C903        C908   1.407       .  A
C903        F910   1.358       .  S
C904        C905   1.396       .  A
C905        C906   1.400   1_565  A
C905        F912   1.358       .  S
C906        C907   1.419       .  A
C906        F911   1.356       .  S
C907        C908   1.404   1_545  A
C908        F909   1.358   1_565  S
C913        C914   1.412       .  A
C913        C918   1.400       .  A
C913        F920   1.357       .  S
C914        C915   1.405       .  A
C915        C916   1.404       .  A
C915        F922   1.358       .  S
C916        C917   1.409       .  A
C916        F921   1.357       .  S
C917        C918   1.401       .  A
C918        F919   1.357       .  S
C923        C924   1.412       .  A
C923        C928   1.387       .  A
C923        F930   1.359       .  S
C924        C925   1.413       .  A
C925        C926   1.408       .  A
C925        F932   1.357       .  S
C926        C927   1.404       .  A
C926        F931   1.357       .  S
C927        C928   1.404       .  A
C928        F929   1.360       .  S
C933        C934   1.412       .  A
C933        C938   1.403       .  A
C933        F940   1.358       .  S
C934        C935   1.405       .  A
C935        C936   1.406       .  A
C935        F942   1.358       .  S
C936        C937   1.410       .  A
C936        F941   1.357       .  S
C937        C938   1.403       .  A
C938        F939   1.357       .  S
C943        C944   1.399       .  A
C943        C948   1.389       .  A
C943        F950   1.360       .  S
C944        C945   1.411       .  A
C945        C946   1.417       .  A
C945        F952   1.357       .  S
C946        C947   1.413       .  A
C946        F951   1.357       .  S
C947        C948   1.418       .  A
C948        F949   1.359   1_565  S
C953        C954   1.415       .  A
C953        C958   1.400       .  A
C953        F960   1.358       .  S
C954        C955   1.409       .  A
C955        C956   1.396       .  A
C955        F962   1.359       .  S
C956        C957   1.404       .  A
C956        F961   1.358   1_565  S
C957        C958   1.399       .  A
C958        F959   1.358       .  S
C963        C964   1.411       .  A
C963        C968   1.407       .  A
C963        F970   1.357       .  S
C964        C965   1.403       .  A
C965        C966   1.405       .  A
C965        F972   1.357       .  S
C966        C967   1.412       .  A
C966        F971   1.356       .  S
C967        C968   1.404       .  A
C968        F969   1.357       .  S
C973        C974   1.417       .  A
C973        C978   1.404       .  A
C973        F980   1.358       .  S
C974        C975   1.403       .  A
C975        C976   1.402       .  A
C975        F982   1.357       .  S
C976        C977   1.416       .  A
C976        F981   1.358       .  S
C977        C978   1.406       .  A
C978        F979   1.358       .  S
C983        C984   1.401       .  A
C983        C988   1.394       .  A
C983        F990   1.359       .  S
C984        C985   1.401       .  A
C985        C986   1.401       .  A
C985        F992   1.357       .  S
C986        C987   1.412       .  A
C986        F991   1.358       .  S
C987        C988   1.409       .  A
C988        F989   1.357       .  S
C993        C994   1.416       .  A
C993        C998   1.406       .  A
C993       F1000   1.358       .  S
C994        C995   1.401       .  A
C995        C996   1.401       .  A
C995       F1002   1.358       .  S
C996        C997   1.415       .  A
C996       F1001   1.359       .  S
C997        C998   1.400       .  A
C998        F999   1.357       .  S
C1003      C1004   1.412       .  A
C1003      C1008   1.394       .  A
C1003      F1010   1.360       .  S
C1004      C1005   1.413       .  A
C1005      C1006   1.421       .  A
C1005      F1012   1.357       .  S
C1006      C1007   1.412       .  A
C1006      F1011   1.356       .  S
C1007      C1008   1.409       .  A
C1008      F1009   1.360       .  S
C1013      C1014   1.409       .  A
C1013      C1018   1.395       .  A
C1013      F1020   1.358       .  S
C1014      C1015   1.404       .  A
C1015      C1016   1.394       .  A
C1015      F1022   1.359       .  S
C1016      C1017   1.405       .  A
C1016      F1021   1.359       .  S
C1017      C1018   1.399       .  A
C1018      F1019   1.358       .  S
C1023      C1024   1.401       .  A
C1023      C1028   1.399       .  A
C1023      F1030   1.356   1_556  S
C1024      C1025   1.409       .  A
C1025      C1026   1.404       .  A
C1025      F1032   1.357       .  S
C1026      C1027   1.403       .  A
C1026      F1031   1.358       .  S
C1027      C1028   1.410       .  A
C1028      F1029   1.357   1_556  S
C1033      C1034   1.410       .  A
C1033      C1038   1.395       .  A
C1033      F1040   1.358       .  S
C1034      C1035   1.414       .  A
C1035      C1036   1.400       .  A
C1035      F1042   1.357       .  S
C1036      C1037   1.397       .  A
C1036      F1041   1.358       .  S
C1037      C1038   1.402       .  A
C1038      F1039   1.359       .  S
C1043      C1044   1.405       .  A
C1043      C1048   1.404       .  A
C1043      F1050   1.358       .  S
C1044      C1045   1.417       .  A
C1045      C1046   1.402       .  A
C1045      F1052   1.358       .  S
C1046      C1047   1.406       .  A
C1046      F1051   1.358       .  S
C1047      C1048   1.417       .  A
C1048      F1049   1.357       .  S
C1053      C1054   1.402       .  A
C1053      C1058   1.405   1_545  A
C1053      F1060   1.358       .  S
C1054      C1055   1.411       .  A
C1055      C1056   1.399   1_545  A
C1055      F1062   1.357       .  S
C1056      C1057   1.400       .  A
C1056      F1061   1.356       .  S
C1057      C1058   1.411       .  A
C1058      F1059   1.357       .  S
C1063      C1064   1.397       .  A
C1063      C1068   1.397       .  A
C1063      F1070   1.359       .  S
C1064      C1065   1.409       .  A
C1065      C1066   1.412       .  A
C1065      F1072   1.356       .  S
C1066      C1067   1.409       .  A
C1066      F1071   1.357       .  S
C1067      C1068   1.421       .  A
C1068      F1069   1.358       .  S
C1073      C1074   1.397       .  A
C1073      C1078   1.397   1_554  A
C1073      F1080   1.358       .  S
C1074      C1075   1.402       .  A
C1075      C1076   1.396   1_554  A
C1075      F1082   1.359       .  S
C1076      C1077   1.408       .  A
C1076      F1081   1.357       .  S
C1077      C1078   1.415       .  A
C1078      F1079   1.358       .  S
C1083      C1084   1.405       .  A
C1083      C1088   1.407       .  A
C1083      F1090   1.357       .  S
C1084      C1085   1.410       .  A
C1085      C1086   1.401       .  A
C1085      F1092   1.358       .  S
C1086      C1087   1.404       .  A
C1086      F1091   1.357       .  S
C1087      C1088   1.410       .  A
C1088      F1089   1.357       .  S
C1093      C1094   1.405       .  A
C1093      C1098   1.392       .  A
C1093      F1100   1.359       .  S
C1094      C1095   1.401       .  A
C1095      C1096   1.401       .  A
C1095      F1102   1.358       .  S
C1096      C1097   1.412       .  A
C1096      F1101   1.358       .  S
C1097      C1098   1.403       .  A
C1098      F1099   1.358       .  S
C1103      C1104   1.402       .  A
C1103      C1108   1.401       .  A
C1103      F1110   1.356       .  S
C1104      C1105   1.410       .  A
C1105      C1106   1.406       .  A
C1105      F1112   1.357       .  S
C1106      C1107   1.403       .  A
C1106      F1111   1.357       .  S
C1107      C1108   1.410       .  A
C1108      F1109   1.357       .  S
C1113      C1114   1.419       .  A
C1113      C1118   1.396       .  A
C1113      F1120   1.358       .  S
C1114      C1115   1.410       .  A
C1115      C1116   1.412       .  A
C1115      F1122   1.357       .  S
C1116      C1117   1.408       .  A
C1116      F1121   1.357       .  S
C1117      C1118   1.397       .  A
C1118      F1119   1.359       .  S
C1123      C1124   1.415       .  A
C1123      C1128   1.398       .  A
C1123      F1130   1.358       .  S
C1124      C1125   1.409       .  A
C1125      C1126   1.399       .  A
C1125      F1132   1.356       .  S
C1126      C1127   1.403       .  A
C1126      F1131   1.359       .  S
C1127      C1128   1.398       .  A
C1128      F1129   1.357       .  S
C1133      C1134   1.407       .  A
C1133      C1138   1.404       .  A
C1133      F1140   1.358       .  S
C1134      C1135   1.417       .  A
C1135      C1136   1.404       .  A
C1135      F1142   1.358       .  S
C1136      C1137   1.405       .  A
C1136      F1141   1.358       .  S
C1137      C1138   1.416       .  A
C1138      F1139   1.358       .  S
C1143      C1144   1.408       .  A
C1143      C1148   1.401       .  A
C1143      F1150   1.355       .  S
C1144      C1145   1.404       .  A
C1145      C1146   1.409       .  A
C1145      F1152   1.357       .  S
C1146      C1147   1.411   1_565  A
C1146      F1151   1.357   1_565  S
C1147      C1148   1.403   1_545  A
C1148      F1149   1.356   1_565  S
C1153      C1154   1.414       .  A
C1153      C1158   1.401       .  A
C1153      F1160   1.357       .  S
C1154      C1155   1.410       .  A
C1155      C1156   1.392       .  A
C1155      F1162   1.358       .  S
C1156      C1157   1.402   1_554  A
C1156      F1161   1.359       .  S
C1157      C1158   1.399   1_556  A
C1158      F1159   1.357   1_554  S
C1163      C1164   1.400       .  A
C1163      C1168   1.402       .  A
C1163      F1170   1.357       .  S
C1164      C1165   1.415       .  A
C1165      C1166   1.406       .  A
C1165      F1172   1.357       .  S
C1166      C1167   1.402       .  A
C1166      F1171   1.357       .  S
C1167      C1168   1.415       .  A
C1168      F1169   1.359       .  S
C1173      C1174   1.416       .  A
C1173      C1178   1.408       .  A
C1173      F1180   1.358       .  S
C1174      C1175   1.399       .  A
C1175      C1176   1.405       .  A
C1175      F1182   1.358       .  S
C1176      C1177   1.421       .  A
C1176      F1181   1.357   1_455  S
C1177      C1178   1.403       .  A
C1178      F1179   1.357       .  S
C1183      C1184   1.417   1_554  A
C1183      C1188   1.402       .  A
C1183      F1190   1.358       .  S
C1184      C1185   1.407       .  A
C1185      C1186   1.400   1_656  A
C1185      F1192   1.358       .  S
C1186      C1187   1.410       .  A
C1186      F1191   1.359       .  S
C1187      C1188   1.400   1_455  A
C1188      F1189   1.358   1_655  S
C1193      C1194   1.398       .  A
C1193      C1198   1.384       .  A
C1193      F1200   1.359       .  S
C1194      C1195   1.406       .  A
C1195      C1196   1.406       .  A
C1195      F1202   1.357       .  S
C1196      C1197   1.411       .  A
C1196      F1201   1.357       .  S
C1197      C1198   1.413       .  A
C1198      F1199   1.359       .  S
C1203      C1204   1.402       .  A
C1203      C1208   1.406       .  A
C1203      F1210   1.358       .  S
C1204      C1205   1.411       .  A
C1205      C1206   1.408       .  A
C1205      F1212   1.355       .  S
C1206      C1207   1.403       .  A
C1206      F1211   1.357       .  S
C1207      C1208   1.415       .  A
C1208      F1209   1.357       .  S
C1213      C1214   1.415       .  A
C1213      C1218   1.403       .  A
C1213      F1220   1.358       .  S
C1214      C1215   1.406       .  A
C1215      C1216   1.403       .  A
C1215      F1222   1.358       .  S
C1216      C1217   1.412       .  A
C1216      F1221   1.358       .  S
C1217      C1218   1.404       .  A
C1218      F1219   1.358       .  S
C1223      C1224   1.404       .  A
C1223      C1228   1.388   1_565  A
C1223      F1230   1.360       .  S
C1224      C1225   1.401   1_565  A
C1225      C1226   1.404       .  A
C1225      F1232   1.355       .  S
C1226      C1227   1.412       .  A
C1226      F1231   1.357       .  S
C1227      C1228   1.408       .  A
C1228      F1229   1.359   1_545  S
C1233      C1234   1.412       .  A
C1233      C1238   1.403   1_545  A
C1233      F1240   1.358       .  S
C1234      C1235   1.406   1_545  A
C1235      C1236   1.401       .  A
C1235      F1242   1.358       .  S
C1236      C1237   1.413       .  A
C1236      F1241   1.358       .  S
C1237      C1238   1.406       .  A
C1238      F1239   1.357       .  S
C1243      C1244   1.409       .  A
C1243      C1248   1.403       .  A
C1243      F1250   1.354       .  S
C1244      C1245   1.404       .  A
C1245      C1246   1.409       .  A
C1245      F1252   1.357       .  S
C1246      C1247   1.414       .  A
C1246      F1251   1.357       .  S
C1247      C1248   1.401       .  A
C1248      F1249   1.358       .  S
C1253      C1254   1.409       .  A
C1253      C1258   1.418       .  A
C1253      F1260   1.357       .  S
C1254      C1255   1.423       .  A
C1255      C1256   1.398       .  A
C1255      F1262   1.357       .  S
C1256      C1257   1.395       .  A
C1256      F1261   1.358   1_545  S
C1257      C1258   1.413       .  A
C1258      F1259   1.356       .  S
C1263      C1264   1.396       .  A
C1263      C1268   1.394       .  A
C1263      F1270   1.358       .  S
C1264      C1265   1.400       .  A
C1265      C1266   1.392       .  A
C1265      F1272   1.359       .  S
C1266      C1267   1.407       .  A
C1266      F1271   1.357       .  S
C1267      C1268   1.415       .  A
C1268      F1269   1.358       .  S
C1273      C1274   1.405       .  A
C1273      C1278   1.406       .  A
C1273      F1280   1.358       .  S
C1274      C1275   1.412       .  A
C1275      C1276   1.400       .  A
C1275      F1282   1.358       .  S
C1276      C1277   1.401       .  A
C1276      F1281   1.358       .  S
C1277      C1278   1.408       .  A
C1278      F1279   1.357       .  S
C1283      C1284   1.409       .  A
C1283      C1288   1.416       .  A
C1283      F1290   1.358       .  S
C1284      C1285   1.403       .  A
C1285      C1286   1.390       .  A
C1285      F1292   1.353       .  S
C1286      C1287   1.404       .  A
C1286      F1291   1.357       .  S
C1287      C1288   1.413       .  A
C1288      F1289   1.358       .  S
C1293      C1294   1.411       .  A
C1293      C1298   1.402       .  A
C1293      F1300   1.358       .  S
C1294      C1295   1.408       .  A
C1295      C1296   1.390       .  A
C1295      F1302   1.358       .  S
C1296      C1297   1.402       .  A
C1296      F1301   1.359       .  S
C1297      C1298   1.402       .  A
C1298      F1299   1.357       .  S
C1303      C1304   1.407       .  A
C1303      C1308   1.395       .  A
C1303      F1310   1.358       .  S
C1304      C1305   1.408       .  A
C1305      C1306   1.403       .  A
C1305      F1312   1.357       .  S
C1306      C1307   1.403       .  A
C1306      F1311   1.357       .  S
C1307      C1308   1.404       .  A
C1308      F1309   1.358       .  S
C1313      C1314   1.402       .  A
C1313      C1318   1.403   1_655  A
C1313      F1320   1.358       .  S
C1314      C1315   1.409       .  A
C1315      C1316   1.403   1_655  A
C1315      F1322   1.356       .  S
C1316      C1317   1.402       .  A
C1316      F1321   1.357       .  S
C1317      C1318   1.413       .  A
C1318      F1319   1.357       .  S
C1323      C1324   1.402       .  A
C1323      C1328   1.402       .  A
C1323      F1330   1.356       .  S
C1324      C1325   1.410       .  A
C1325      C1326   1.402       .  A
C1325      F1332   1.355       .  S
C1326      C1327   1.400       .  A
C1326      F1331   1.358       .  S
C1327      C1328   1.411       .  A
C1328      F1329   1.358       .  S
C1333      C1334   1.419       .  A
C1333      C1338   1.395       .  A
C1333      F1340   1.356       .  S
C1334      C1335   1.404       .  A
C1335      C1336   1.407       .  A
C1335      F1342   1.357       .  S
C1336      C1337   1.412       .  A
C1336      F1341   1.357       .  S
C1337      C1338   1.394       .  A
C1338      F1339   1.358       .  S
C1343      C1344   1.415       .  A
C1343      C1348   1.399       .  A
C1343      F1350   1.358       .  S
C1344      C1345   1.407       .  A
C1345      C1346   1.392       .  A
C1345      F1352   1.358       .  S
C1346      C1347   1.405       .  A
C1346      F1351   1.359   1_655  S
C1347      C1348   1.398       .  A
C1348      F1349   1.355   1_554  S
C1353      C1354   1.399       .  A
C1353      C1358   1.400   1_554  A
C1353      F1360   1.357       .  S
C1354      C1355   1.403       .  A
C1355      C1356   1.396   1_554  A
C1355      F1362   1.359   1_565  S
C1356      C1357   1.410       .  A
C1356      F1361   1.358       .  S
C1357      C1358   1.415       .  A
C1358      F1359   1.358       .  S
C1363      C1364   1.409       .  A
C1363      C1368   1.401       .  A
C1363      F1370   1.357       .  S
C1364      C1365   1.400       .  A
C1365      C1366   1.401       .  A
C1365      F1372   1.357       .  S
C1366      C1367   1.409       .  A
C1366      F1371   1.356       .  S
C1367      C1368   1.400       .  A
C1368      F1369   1.358       .  S
C1373      C1374   1.403       .  A
C1373      C1378   1.401       .  A
C1373      F1380   1.358       .  S
C1374      C1375   1.415       .  A
C1375      C1376   1.409       .  A
C1375      F1382   1.357       .  S
C1376      C1377   1.402       .  A
C1376      F1381   1.356       .  S
C1377      C1378   1.411       .  A
C1378      F1379   1.354       .  S
C1383      C1384   1.408       .  A
C1383      C1388   1.396       .  A
C1383      F1390   1.356       .  S
C1384      C1385   1.411       .  A
C1385      C1386   1.391       .  A
C1385      F1392   1.358       .  S
C1386      C1387   1.398       .  A
C1386      F1391   1.358       .  S
C1387      C1388   1.402       .  A
C1388      F1389   1.359       .  S
C1393      C1394   1.408       .  A
C1393      C1398   1.406       .  A
C1393      F1400   1.358       .  S
C1394      C1395   1.403       .  A
C1395      C1396   1.394       .  A
C1395      F1402   1.358       .  S
C1396      C1397   1.403       .  A
C1396      F1401   1.358       .  S
C1397      C1398   1.406       .  A
C1398      F1399   1.358       .  S
C1403      C1404   1.401       .  A
C1403      C1408   1.404       .  A
C1403      F1410   1.358       .  S
C1404      C1405   1.410       .  A
C1405      C1406   1.406       .  A
C1405      F1412   1.356       .  S
C1406      C1407   1.403       .  A
C1406      F1411   1.357       .  S
C1407      C1408   1.413       .  A
C1408      F1409   1.356       .  S
C1413      C1414   1.402       .  A
C1413      C1418   1.394       .  A
C1413      F1420   1.358       .  S
C1414      C1415   1.415       .  A
C1415      C1416   1.401       .  A
C1415      F1422   1.358       .  S
C1416      C1417   1.404       .  A
C1416      F1421   1.358       .  S
C1417      C1418   1.415       .  A
C1418      F1419   1.358       .  S
C1423      C1424   1.401       .  A
C1423      C1428   1.401       .  A
C1423      F1430   1.357       .  S
C1424      C1425   1.412       .  A
C1425      C1426   1.399       .  A
C1425      F1432   1.358       .  S
C1426      C1427   1.399       .  A
C1426      F1431   1.357       .  S
C1427      C1428   1.408       .  A
C1428      F1429   1.357       .  S
C1433      C1434   1.396       .  A
C1433      C1438   1.392   1_655  A
C1433      F1440   1.360       .  S
C1434      C1435   1.410       .  A
C1435      C1436   1.415   1_655  A
C1435      F1442   1.357       .  S
C1436      C1437   1.410       .  A
C1436      F1441   1.356       .  S
C1437      C1438   1.421       .  A
C1438      F1439   1.358       .  S
C1443      C1444   1.414       .  A
C1443      C1448   1.398       .  A
C1443      F1450   1.358       .  S
C1444      C1445   1.409       .  A
C1445      C1446   1.390       .  A
C1445      F1452   1.358       .  S
C1446      C1447   1.400       .  A
C1446      F1451   1.359       .  S
C1447      C1448   1.398       .  A
C1448      F1449   1.358       .  S
C1453      C1454   1.402       .  A
C1453      C1458   1.389       .  A
C1453      F1460   1.359       .  S
C1454      C1455   1.399       .  A
C1455      C1456   1.400       .  A
C1455      F1462   1.357       .  S
C1456      C1457   1.412       .  A
C1456      F1461   1.358       .  S
C1457      C1458   1.405       .  A
C1458      F1459   1.358       .  S
C1463      C1464   1.412       .  A
C1463      C1468   1.403       .  A
C1463      F1470   1.357       .  S
C1464      C1465   1.403       .  A
C1465      C1466   1.405       .  A
C1465      F1472   1.357       .  S
C1466      C1467   1.409       .  A
C1466      F1471   1.357       .  S
C1467      C1468   1.402       .  A
C1468      F1469   1.357       .  S
C1473      C1474   1.411       .  A
C1473      C1478   1.406       .  A
C1473      F1480   1.357       .  S
C1474      C1475   1.403       .  A
C1475      C1476   1.404       .  A
C1475      F1482   1.357       .  S
C1476      C1477   1.410       .  A
C1476      F1481   1.357       .  S
C1477      C1478   1.403       .  A
C1478      F1479   1.358       .  S
C1483      C1484   1.405       .  A
C1483      C1488   1.392       .  A
C1483      F1490   1.359       .  S
C1484      C1485   1.399       .  A
C1485      C1486   1.401       .  A
C1485      F1492   1.357       .  S
C1486      C1487   1.416       .  A
C1486      F1491   1.358       .  S
C1487      C1488   1.407       .  A
C1488      F1489   1.358       .  S
C1493      C1494   1.402       .  A
C1493      C1498   1.393       .  A
C1493      F1500   1.359       .  S
C1494      C1495   1.397       .  A
C1495      C1496   1.396       .  A
C1495      F1502   1.357       .  S
C1496      C1497   1.415       .  A
C1496      F1501   1.358       .  S
C1497      C1498   1.409       .  A
C1498      F1499   1.358       .  S
C1503      C1504   1.405   1_655  A
C1503      C1508   1.408       .  A
C1503      F1510   1.357   1_655  S
C1504      C1505   1.412   1_455  A
C1505      C1506   1.396       .  A
C1505      F1512   1.358   1_655  S
C1506      C1507   1.398       .  A
C1506      F1511   1.358       .  S
C1507      C1508   1.411       .  A
C1508      F1509   1.358       .  S
C1513      C1514   1.415       .  A
C1513      C1518   1.402       .  A
C1513      F1520   1.358       .  S
C1514      C1515   1.408       .  A
C1515      C1516   1.400       .  A
C1515      F1522   1.358       .  S
C1516      C1517   1.409       .  A
C1516      F1521   1.358       .  S
C1517      C1518   1.403       .  A
C1518      F1519   1.358       .  S
C1523      C1524   1.403       .  A
C1523      C1528   1.390   1_545  A
C1523      F1530   1.356       .  S
C1524      C1525   1.408       .  A
C1525      C1526   1.413   1_545  A
C1525      F1532   1.357       .  S
C1526      C1527   1.411       .  A
C1526      F1531   1.357       .  S
C1527      C1528   1.405       .  A
C1528      F1529   1.356   1_455  S
C1533      C1534   1.413       .  A
C1533      C1538   1.408       .  A
C1533      F1540   1.358       .  S
C1534      C1535   1.396       .  A
C1535      C1536   1.399       .  A
C1535      F1542   1.358       .  S
C1536      C1537   1.420       .  A
C1536      F1541   1.357       .  S
C1537      C1538   1.405       .  A
C1538      F1539   1.357       .  S
C1543      C1544   1.400       .  A
C1543      C1548   1.386       .  A
C1543      F1550   1.359       .  S
C1544      C1545   1.402       .  A
C1545      C1546   1.398       .  A
C1545      F1552   1.358       .  S
C1546      C1547   1.409       .  A
C1546      F1551   1.358       .  S
C1547      C1548   1.408       .  A
C1548      F1549   1.359       .  S
C1553      C1554   1.406       .  A
C1553      C1558   1.401       .  A
C1553      F1560   1.358   1_455  S
C1554      C1555   1.405       .  A
C1555      C1556   1.398       .  A
C1555      F1562   1.358       .  S
C1556      C1557   1.405       .  A
C1556      F1561   1.359       .  S
C1557      C1558   1.404       .  A
C1558      F1559   1.357       .  S
C1563      C1564   1.410       .  A
C1563      C1568   1.404       .  A
C1563      F1570   1.358       .  S
C1564      C1565   1.401   1_556  A
C1565      C1566   1.401   1_554  A
C1565      F1572   1.357       .  S
C1566      C1567   1.410       .  A
C1566      F1571   1.357   1_556  S
C1567      C1568   1.402       .  A
C1568      F1569   1.357       .  S
C1573      C1574   1.415   1_554  A
C1573      C1578   1.404   1_545  A
C1573      F1580   1.357       .  S
C1574      C1575   1.410   1_545  A
C1575      C1576   1.408       .  A
C1575      F1582   1.358       .  S
C1576      C1577   1.412   1_556  A
C1576      F1581   1.358       .  S
C1577      C1578   1.405       .  A
C1578      F1579   1.358       .  S
C1583      C1584   1.404       .  A
C1583      C1588   1.404       .  A
C1583      F1590   1.357       .  S
C1584      C1585   1.413       .  A
C1585      C1586   1.408       .  A
C1585      F1592   1.357   1_556  S
C1586      C1587   1.403       .  A
C1586      F1591   1.356   1_556  S
C1587      C1588   1.407       .  A
C1588      F1589   1.356       .  S
C1593      C1594   1.397       .  A
C1593      C1598   1.397       .  A
C1593      F1600   1.357       .  S
C1594      C1595   1.402       .  A
C1595      C1596   1.395       .  A
C1595      F1602   1.359       .  S
C1596      C1597   1.407       .  A
C1596      F1601   1.358       .  S
C1597      C1598   1.416       .  A
C1598      F1599   1.358       .  S
C1603      C1604   1.402       .  A
C1603      C1608   1.404       .  A
C1603      F1610   1.358       .  S
C1604      C1605   1.405       .  A
C1605      C1606   1.394       .  A
C1605      F1612   1.359       .  S
C1606      C1607   1.408       .  A
C1606      F1611   1.359       .  S
C1607      C1608   1.414       .  A
C1608      F1609   1.358       .  S
C1613      C1614   1.410       .  A
C1613      C1618   1.401       .  A
C1613      F1620   1.356       .  S
C1614      C1615   1.404       .  A
C1615      C1616   1.409       .  A
C1615      F1622   1.358       .  S
C1616      C1617   1.412   1_655  A
C1616      F1621   1.357   1_655  S
C1617      C1618   1.401   1_455  A
C1618      F1619   1.357   1_655  S
C1623      C1624   1.403       .  A
C1623      C1628   1.404       .  A
C1623      F1630   1.357       .  S
C1624      C1625   1.410       .  A
C1625      C1626   1.406       .  A
C1625      F1632   1.357       .  S
C1626      C1627   1.402       .  A
C1626      F1631   1.357       .  S
C1627      C1628   1.411       .  A
C1628      F1629   1.357       .  S
C1633      C1634   1.413       .  A
C1633      C1638   1.422       .  A
C1633      F1640   1.357       .  S
C1634      C1635   1.399   1_545  A
C1635      C1636   1.394   1_565  A
C1635      F1642   1.359       .  S
C1636      C1637   1.422       .  A
C1636      F1641   1.359   1_545  S
C1637      C1638   1.414       .  A
C1638      F1639   1.357       .  S
C1643      C1644   1.404       .  A
C1643      C1648   1.390       .  A
C1643      F1650   1.359       .  S
C1644      C1645   1.397   1_565  A
C1645      C1646   1.396       .  A
C1645      F1652   1.358   1_554  S
C1646      C1647   1.415       .  A
C1646      F1651   1.358       .  S
C1647      C1648   1.404   1_545  A
C1648      F1649   1.358       .  S
C1653      C1654   1.414       .  A
C1653      C1658   1.398   1_556  A
C1653      F1660   1.358       .  S
C1654      C1655   1.409       .  A
C1655      C1656   1.391   1_455  A
C1655      F1662   1.358   1_455  S
C1656      C1657   1.401   1_556  A
C1656      F1661   1.359   1_556  S
C1657      C1658   1.399   1_655  A
C1658      F1659   1.357       .  S
C1663      C1664   1.400       .  A
C1663      C1668   1.399       .  A
C1663      F1670   1.358       .  S
C1664      C1665   1.406       .  A
C1665      C1666   1.402       .  A
C1665      F1672   1.357       .  S
C1666      C1667   1.403       .  A
C1666      F1671   1.358       .  S
C1667      C1668   1.413       .  A
C1668      F1669   1.359       .  S
C1673      C1674   1.407       .  A
C1673      C1678   1.397       .  A
C1673      F1680   1.358       .  S
C1674      C1675   1.417       .  A
C1675      C1676   1.403       .  A
C1675      F1682   1.358       .  S
C1676      C1677   1.402       .  A
C1676      F1681   1.358       .  S
C1677      C1678   1.409       .  A
C1678      F1679   1.358       .  S
C1683      C1684   1.406       .  A
C1683      C1688   1.394       .  A
C1683      F1690   1.358       .  S
C1684      C1685   1.411       .  A
C1685      C1686   1.417       .  A
C1685      F1692   1.357       .  S
C1686      C1687   1.412       .  A
C1686      F1691   1.357       .  S
C1687      C1688   1.408       .  A
C1688      F1689   1.356       .  S
C1693      C1694   1.408       .  A
C1693      C1698   1.398       .  A
C1693      F1700   1.358       .  S
C1694      C1695   1.402       .  A
C1695      C1696   1.398       .  A
C1695      F1702   1.358       .  S
C1696      C1697   1.407       .  A
C1696      F1701   1.358       .  S
C1697      C1698   1.402       .  A
C1698      F1699   1.358       .  S
C1703      C1704   1.395       .  A
C1703      C1708   1.392       .  A
C1703      F1710   1.356       .  S
C1704      C1705   1.400       .  A
C1705      C1706   1.397       .  A
C1705      F1712   1.359       .  S
C1706      C1707   1.412       .  A
C1706      F1711   1.358       .  S
C1707      C1708   1.414       .  A
C1708      F1709   1.358       .  S
C1713      C1714   1.403       .  A
C1713      C1718   1.406       .  A
C1713      F1720   1.353       .  S
C1714      C1715   1.414       .  A
C1715      C1716   1.397       .  A
C1715      F1722   1.358       .  S
C1716      C1717   1.398       .  A
C1716      F1721   1.358       .  S
C1717      C1718   1.411       .  A
C1718      F1719   1.357       .  S
C1723      C1724   1.401       .  A
C1723      C1728   1.404       .  A
C1723      F1730   1.357       .  S
C1724      C1725   1.401       .  A
C1725      C1726   1.396       .  A
C1725      F1732   1.352       .  S
C1726      C1727   1.401       .  A
C1726      F1731   1.356       .  S
C1727      C1728   1.410       .  A
C1728      F1729   1.357       .  S
C1733      C1734   1.396       .  A
C1733      C1738   1.400   1_655  A
C1733      F1740   1.358       .  S
C1734      C1735   1.413       .  A
C1735      C1736   1.408   1_655  A
C1735      F1742   1.357       .  S
C1736      C1737   1.405       .  A
C1736      F1741   1.357       .  S
C1737      C1738   1.424       .  A
C1738      F1739   1.358       .  S
C1743      C1744   1.396       .  A
C1743      C1748   1.397       .  A
C1743      F1750   1.356       .  S
C1744      C1745   1.405       .  A
C1745      C1746   1.396       .  A
C1745      F1752   1.359       .  S
C1746      C1747   1.409       .  A
C1746      F1751   1.359       .  S
C1747      C1748   1.414       .  A
C1748      F1749   1.357       .  S
C1753      C1754   1.404       .  A
C1753      C1758   1.390       .  A
C1753      F1760   1.357       .  S
C1754      C1755   1.402       .  A
C1755      C1756   1.400       .  A
C1755      F1762   1.356       .  S
C1756      C1757   1.405       .  A
C1756      F1761   1.358       .  S
C1757      C1758   1.401       .  A
C1758      F1759   1.359       .  S
C1763      C1764   1.401       .  A
C1763      C1768   1.404   1_455  A
C1763      F1770   1.357       .  S
C1764      C1765   1.412       .  A
C1765      C1766   1.404   1_455  A
C1765      F1772   1.357       .  S
C1766      C1767   1.402       .  A
C1766      F1771   1.358       .  S
C1767      C1768   1.411       .  A
C1768      F1769   1.357       .  S
C1773      C1774   1.409       .  A
C1773      C1778   1.404       .  A
C1773      F1780   1.358       .  S
C1774      C1775   1.417       .  A
C1775      C1776   1.404       .  A
C1775      F1782   1.357       .  S
C1776      C1777   1.402       .  A
C1776      F1781   1.358       .  S
C1777      C1778   1.411       .  A
C1778      F1779   1.358       .  S
C1783      C1784   1.403       .  A
C1783      C1788   1.401       .  A
C1783      F1790   1.358       .  S
C1784      C1785   1.416       .  A
C1785      C1786   1.411       .  A
C1785      F1792   1.358       .  S
C1786      C1787   1.404   1_565  A
C1786      F1791   1.357       .  S
C1787      C1788   1.407   1_545  A
C1788      F1789   1.353   1_565  S
C1793      C1794   1.401       .  A
C1793      C1798   1.390       .  A
C1793      F1800   1.359   1_655  S
C1794      C1795   1.399       .  A
C1795      C1796   1.401       .  A
C1795      F1802   1.358       .  S
C1796      C1797   1.415       .  A
C1796      F1801   1.358       .  S
C1797      C1798   1.409       .  A
C1798      F1799   1.358       .  S
C1803      C1804   1.401       .  A
C1803      C1808   1.390       .  A
C1803      F1810   1.359       .  S
C1804      C1805   1.402       .  A
C1805      C1806   1.405       .  A
C1805      F1812   1.358       .  S
C1806      C1807   1.414       .  A
C1806      F1811   1.358       .  S
C1807      C1808   1.410       .  A
C1808      F1809   1.358       .  S
C1813      C1814   1.409       .  A
C1813      C1818   1.400       .  A
C1813      F1820   1.357       .  S
C1814      C1815   1.401       .  A
C1815      C1816   1.402       .  A
C1815      F1822   1.358       .  S
C1816      C1817   1.408       .  A
C1816      F1821   1.357       .  S
C1817      C1818   1.401       .  A
C1818      F1819   1.357       .  S
C1823      C1824   1.407       .  A
C1823      C1828   1.398       .  A
C1823      F1830   1.355       .  S
C1824      C1825   1.399       .  A
C1825      C1826   1.402       .  A
C1825      F1832   1.357       .  S
C1826      C1827   1.414       .  A
C1826      F1831   1.357       .  S
C1827      C1828   1.401       .  A
C1828      F1829   1.357       .  S
C1833      C1834   1.395       .  A
C1833      C1838   1.394       .  A
C1833      F1840   1.359       .  S
C1834      C1835   1.410       .  A
C1835      C1836   1.418       .  A
C1835      F1842   1.356       .  S
C1836      C1837   1.412       .  A
C1836      F1841   1.357       .  S
C1837      C1838   1.422       .  A
C1838      F1839   1.357       .  S
C1843      C1844   1.404       .  A
C1843      C1848   1.399       .  A
C1843      F1850   1.358       .  S
C1844      C1845   1.415       .  A
C1845      C1846   1.403       .  A
C1845      F1852   1.358       .  S
C1846      C1847   1.408       .  A
C1846      F1851   1.358       .  S
C1847      C1848   1.415       .  A
C1848      F1849   1.357       .  S
C1853      C1854   1.402       .  A
C1853      C1858   1.399       .  A
C1853      F1860   1.359       .  S
C1854      C1855   1.401       .  A
C1855      C1856   1.397       .  A
C1855      F1862   1.358       .  S
C1856      C1857   1.411       .  A
C1856      F1861   1.358       .  S
C1857      C1858   1.410       .  A
C1858      F1859   1.356       .  S
C1863      C1864   1.402       .  A
C1863      C1868   1.401       .  A
C1863      F1870   1.353       .  S
C1864      C1865   1.403       .  A
C1865      C1866   1.394       .  A
C1865      F1872   1.359       .  S
C1866      C1867   1.405       .  A
C1866      F1871   1.358       .  S
C1867      C1868   1.407       .  A
C1868      F1869   1.358       .  S
