geometry optimzed in LAMMPS
_audit_creation_date              2020-12-01 
_audit_creation_method            'lammps2cif' 
_symmetry_space_group_name_H-M    'P1' 
_symmetry_Int_Tables_number       1 
_symmetry_cell_setting            triclinic 
loop_ 
_symmetry_equiv_pos_as_xyz 
  x,y,z 
_cell_length_a                    28.44224406 
_cell_length_b                    28.658173602545425 
_cell_length_c                    88.64719806324574 
_cell_angle_alpha                 89.88311546259384 
_cell_angle_beta                  90.07920078148202 
_cell_angle_gamma                 90.14958137416164 
loop_ 
_atom_site_label 
_atom_site_type_symbol 
_atom_site_fract_x 
_atom_site_fract_y 
_atom_site_fract_z 
_atom_site_charge 
O1          O  0.83725575  0.09115021  0.70501176    -0.85200
O2          O  0.75888514  0.09187060  0.72256825    -0.82300
C3          C  0.77756605  0.08700153  0.73542770     0.98200
O4          O  0.80162628  0.11989220  0.74090117    -0.82300
O5          O  0.85333717  0.20183801  0.74306083    -0.85000
C6          C  0.89403171  0.19165882  0.73833080     1.02800
O7          O  0.89993857  0.18129490  0.72475366    -0.77700
O8          O  0.88358701  0.14706120  0.69700200    -0.77900
C9          C  0.87709989  0.10454023  0.70054971     1.02700
O10         O  0.79604875  0.15872347  0.68473230    -0.85200
O11         O  0.72139175  0.16730394  0.70492472    -0.82300
C12         C  0.70036911  0.17450758  0.71724630     0.98200
O13         O  0.72204916  0.17155976  0.72971254    -0.82300
O14         O  0.77615383  0.24987116  0.72917048    -0.84900
C15         C  0.80679952  0.27846927  0.72471215     1.02700
O16         O  0.84474608  0.26414251  0.71879858    -0.77700
O17         O  0.82250299  0.22718169  0.69121526    -0.77900
C18         C  0.80535392  0.20072655  0.68135622     1.02700
Cr19       Cr  0.78049090  0.13045821  0.70496779     1.93700
Cr20       Cr  0.78991810  0.18480276  0.73436894     1.93200
Cr21       Cr  0.85891384  0.20287206  0.70844479     1.39100
O22         O  0.80972246  0.17309745  0.71590228    -1.23000
O23         O  0.17943616  0.87852542  0.70650442    -0.85200
O24         O  0.25379467  0.87118196  0.72572357    -0.82300
C25         C  0.23370740  0.87072496  0.73845735     0.98200
O26         O  0.20982091  0.83578936  0.74254795    -0.82300
O27         O  0.15793402  0.75350769  0.74073957    -0.85000
C28         C  0.11742801  0.76472502  0.73610076     1.02800
O29         O  0.11247856  0.78075835  0.72297550    -0.77700
O30         O  0.13292225  0.82582064  0.69658281    -0.77900
C31         C  0.14062296  0.86766426  0.70056686     1.02700
O32         O  0.22473073  0.81772503  0.68514805    -0.85200
O33         O  0.29515063  0.80217759  0.70633249    -0.82300
C34         C  0.31427181  0.79082895  0.71865459     0.98200
O35         O  0.29033763  0.78824911  0.73065656    -0.82300
O36         O  0.23583768  0.71031939  0.72620475    -0.84900
C37         C  0.20468837  0.68414144  0.72062636     1.02700
O38         O  0.16869126  0.70130081  0.71422359    -0.77700
O39         O  0.19367370  0.74859402  0.68832346    -0.77900
C40         C  0.21383166  0.77806221  0.67996084     1.02700
Cr41       Cr  0.23586426  0.83863719  0.70652770     1.93700
Cr42       Cr  0.22202471  0.77357961  0.73360255     1.93200
Cr43       Cr  0.15593588  0.76616086  0.70620788     1.39100
O44         O  0.20458282  0.79251162  0.71539167    -1.23000
O45         O  0.34047928  0.36005479  0.80336543    -0.85200
O46         O  0.29820803  0.37623512  0.77650147    -0.82300
C47         C  0.28332417  0.37094547  0.76326369     0.98200
O48         O  0.27617483  0.33015921  0.75835846    -0.82300
O49         O  0.36320223  0.28501336  0.75799557    -0.85000
C50         C  0.39897569  0.26340387  0.76268567     1.02800
O51         O  0.39834285  0.24319083  0.77541392    -0.77700
O52         O  0.39833165  0.31656843  0.79495496    -0.77900
C53         C  0.38388035  0.35420613  0.80061090     1.02700
O54         O  0.26576324  0.29442373  0.81072646    -0.85200
O55         O  0.22094037  0.31459717  0.78403258    -0.82300
C56         C  0.20769404  0.27704142  0.77773881     0.98200
O57         O  0.23700807  0.24894750  0.77228379    -0.82300
O58         O  0.31947426  0.20159286  0.76898857    -0.84900
C59         C  0.31974250  0.17789481  0.78104279     1.02700
O60         O  0.32739771  0.19738945  0.79358547    -0.77700
O61         O  0.33672046  0.26862562  0.81507470    -0.77900
C62         C  0.29612731  0.27903628  0.81976239     1.02700
Cr63       Cr  0.28369943  0.33254262  0.79300036     1.93700
Cr64       Cr  0.30026341  0.26810845  0.76584989     1.93200
Cr65       Cr  0.36143051  0.25831511  0.79407867     1.39100
O66         O  0.31499940  0.28650129  0.78436280    -1.23000
O67         O  0.66517081  0.60845727  0.80606532    -0.85200
O68         O  0.70983780  0.58776098  0.78002655    -0.82300
C69         C  0.72563076  0.59171822  0.76686242     0.98200
O70         O  0.73572041  0.63163290  0.76164399    -0.82300
O71         O  0.65425174  0.68402384  0.75960030    -0.85000
C72         C  0.61953807  0.70830860  0.76350881     1.02800
O73         O  0.61857973  0.72749084  0.77632658    -0.77700
O74         O  0.61165937  0.65177193  0.79497410    -0.77900
C75         C  0.62359949  0.61390728  0.80111157     1.02700
O76         O  0.74279852  0.67114139  0.81358011    -0.85200
O77         O  0.79066050  0.64367559  0.78790337    -0.82300
C78         C  0.80763605  0.67927332  0.78128901     0.98200
O79         O  0.78102475  0.70970524  0.77569473    -0.82300
O80         O  0.70332105  0.76355058  0.77185263    -0.84900
C81         C  0.70071552  0.78653421  0.78401899     1.02700
O82         O  0.68703876  0.76762936  0.79612078    -0.77700
O83         O  0.67107910  0.69642937  0.81686175    -0.77900
C84         C  0.71156900  0.68771854  0.82203315     1.02700
Cr85       Cr  0.72521574  0.63158847  0.79624929     1.93700
Cr86       Cr  0.71690450  0.69579446  0.76857881     1.93200
Cr87       Cr  0.65072745  0.70860977  0.79549922     1.39100
O88         O  0.69795695  0.67871709  0.78677853    -1.23000
O89         O  0.68583825  0.09808555  0.04485551    -0.85200
O90         O  0.76067010  0.10629010  0.02588933    -0.82300
C91         C  0.74097675  0.10252311  0.01310133     0.98200
O92         O  0.71468261  0.13484001  0.00843394    -0.82300
O93         O  0.65911737  0.21444294  0.00816272    -0.85000
C94         C  0.61908449  0.20223581  0.01282979     1.02800
O95         O  0.61451092  0.18742422  0.02612869    -0.77700
O96         O  0.63611041  0.14973222  0.05356510    -0.77900
C97         C  0.64612550  0.10788689  0.05020183     1.02700
O98         O  0.72584452  0.16561030  0.06512805    -0.85200
O99         O  0.79601855  0.18178968  0.04412202    -0.82300
C100        C  0.81487698  0.19201656  0.03168368     0.98200
O101        O  0.79188422  0.18930430  0.01950446    -0.82300
O102        O  0.73353710  0.26460336  0.02199295    -0.84900
C103        C  0.70112435  0.28980081  0.02716103     1.02700
O104        O  0.66512144  0.27203424  0.03335565    -0.77700
O105        O  0.69183079  0.23229113  0.06018538    -0.77900
C106        C  0.71262388  0.20566581  0.06929554     1.02700
Cr107      Cr  0.73958692  0.14123756  0.04433670     1.93700
Cr108      Cr  0.72340157  0.19935668  0.01592552     1.93200
Cr109      Cr  0.65580582  0.20846609  0.04271674     1.39100
O110        O  0.70619367  0.18334801  0.03438401    -1.23000
O111        O  0.34171222  0.88987652  0.04456190    -0.85200
O112        O  0.26664996  0.88529887  0.02537009    -0.82300
C113        C  0.28577280  0.88569311  0.01249967     0.98200
O114        O  0.31019261  0.85171899  0.00813507    -0.82300
O115        O  0.36343455  0.77110050  0.00951504    -0.85000
C116        C  0.40345197  0.78264910  0.01463815     1.02800
O117        O  0.40730091  0.79601969  0.02807637    -0.77700
O118        O  0.38439565  0.83521301  0.05500568    -0.77900
C119        C  0.37917837  0.87735991  0.05100985     1.02700
O120        O  0.29589244  0.82698162  0.06521624    -0.85200
O121        O  0.22530108  0.81415174  0.04397244    -0.82300
C122        C  0.20625573  0.80341245  0.03158785     0.98200
O123        O  0.22992302  0.80226343  0.01950480    -0.82300
O124        O  0.28422126  0.72466679  0.02318836    -0.84900
C125        C  0.31502705  0.69792767  0.02855216     1.02700
O126        O  0.35183831  0.71427967  0.03465714    -0.77700
O127        O  0.32241257  0.75698851  0.06101951    -0.77900
C128        C  0.30416307  0.78610365  0.06989706     1.02700
Cr129      Cr  0.28459638  0.85067849  0.04416034     1.93700
Cr130      Cr  0.29838867  0.78872248  0.01646323     1.93200
Cr131      Cr  0.36273984  0.77762082  0.04403343     1.39100
O132        O  0.31528473  0.80555752  0.03485803    -1.23000
O133        O  0.84794578  0.61325687  0.94676010    -0.85200
O134        O  0.80554348  0.59428145  0.97357665    -0.82300
C135        C  0.79108389  0.59933311  0.98685500     0.98200
O136        O  0.78249769  0.63971447  0.99180740    -0.82300
O137        O  0.86863136  0.68583725  0.99279739    -0.85000
C138        C  0.90448630  0.70782271  0.98833731     1.02800
O139        O  0.90418194  0.72894072  0.97575965    -0.77700
O140        O  0.90550427  0.65670976  0.95560940    -0.77900
C141        C  0.89138982  0.61963122  0.94941956     1.02700
O142        O  0.77274203  0.67844041  0.93995078    -0.85200
O143        O  0.72754197  0.65505489  0.96615401    -0.82300
C144        C  0.71369274  0.69219173  0.97250977     0.98200
O145        O  0.74271274  0.72050497  0.97810437    -0.82300
O146        O  0.82416222  0.76892026  0.98197466    -0.84900
C147        C  0.82230114  0.79273572  0.96997860     1.02700
O148        O  0.83287051  0.77440156  0.95749946    -0.77700
O149        O  0.84373045  0.70506221  0.93583448    -0.77900
C150        C  0.80290992  0.69540365  0.93115961     1.02700
Cr151      Cr  0.79081437  0.63890864  0.95728127     1.93700
Cr152      Cr  0.80590055  0.70218258  0.98475069     1.93200
Cr153      Cr  0.86796853  0.71433853  0.95687007     1.39100
O154        O  0.82159527  0.68480225  0.96626973    -1.23000
O155        O  0.17316225  0.36841832  0.94599069    -0.85200
O156        O  0.22240268  0.38927247  0.97117472    -0.82300
C157        C  0.23646752  0.38636364  0.98455706     0.98200
O158        O  0.24382051  0.34653009  0.99031604    -0.82300
O159        O  0.15713422  0.30220239  0.99290308    -0.85000
C160        C  0.12088327  0.27929931  0.98941973     1.02800
O161        O  0.11907170  0.25688734  0.97715959    -0.77700
O162        O  0.11691156  0.32838611  0.95717833    -0.77900
C163        C  0.13124588  0.36507848  0.95084000     1.02700
O164        O  0.24470068  0.29909440  0.93848181    -0.85200
O165        O  0.29588367  0.32378553  0.96353043    -0.82300
C166        C  0.30890779  0.28690487  0.97028691     0.98200
O167        O  0.27994661  0.26206671  0.97739087    -0.82300
O168        O  0.19808685  0.21612611  0.98254184    -0.84900
C169        C  0.19426946  0.19091313  0.97085211     1.02700
O170        O  0.18475622  0.20887645  0.95819737    -0.77700
O171        O  0.17165928  0.27711712  0.93595736    -0.77900
C172        C  0.21185420  0.28404685  0.93032637     1.02700
Cr173      Cr  0.23183265  0.34163898  0.95554437     1.93700
Cr174      Cr  0.21836843  0.28316617  0.98438672     1.93200
Cr175      Cr  0.15200949  0.26976157  0.95764136     1.39100
O176        O  0.20102995  0.29836571  0.96583650    -1.23000
O177        O  0.84096635  0.39779937  0.54539605    -0.85200
O178        O  0.76413326  0.38892221  0.52708222    -0.82300
C179        C  0.78267735  0.39122984  0.51414707     0.98200
O180        O  0.80955563  0.35886809  0.50988075    -0.82300
O181        O  0.86542417  0.27859040  0.51047878    -0.85000
C182        C  0.90579346  0.28882387  0.51554759     1.02800
O183        O  0.90977090  0.30362004  0.52878022    -0.77700
O184        O  0.88930101  0.34627309  0.55512786    -0.77900
C185        C  0.88060988  0.38768929  0.55081630     1.02700
O186        O  0.80045383  0.33526073  0.56706598    -0.85200
O187        O  0.72852620  0.31714022  0.54645678    -0.82300
C188        C  0.70930688  0.30482748  0.53424807     0.98200
O189        O  0.73194850  0.30515494  0.52193569    -0.82300
O190        O  0.78947198  0.23024930  0.52460898    -0.84900
C191        C  0.82023494  0.20439395  0.53041112     1.02700
O192        O  0.85607759  0.22147714  0.53695305    -0.77700
O193        O  0.83079041  0.26638874  0.56311884    -0.77900
C194        C  0.81298384  0.29571687  0.57193102     1.02700
Cr195      Cr  0.78597313  0.35626229  0.54587669     1.93700
Cr196      Cr  0.80066766  0.29484752  0.51812993     1.93200
Cr197      Cr  0.86746875  0.28627699  0.54535148     1.39100
O198        O  0.81804433  0.31198806  0.53649520    -1.23000
O199        O  0.67263333  0.88042897  0.44845022    -0.85200
O200        O  0.71321026  0.90117222  0.47562530    -0.82300
C201        C  0.72804518  0.89532825  0.48887538     0.98200
O202        O  0.74013382  0.85518606  0.49328010    -0.82300
O203        O  0.66111690  0.79759997  0.49279161    -0.85000
C204        C  0.62871547  0.77173239  0.48776891     1.02800
O205        O  0.63384641  0.75236047  0.47510850    -0.77700
O206        O  0.62222746  0.82840301  0.45678149    -0.77900
C207        C  0.63077845  0.86864417  0.45167750     1.02700
O208        O  0.75605749  0.82764237  0.44057210    -0.85200
O209        O  0.79784421  0.85257094  0.46720223    -0.82300
C210        C  0.81627627  0.81638086  0.47285621     0.98200
O211        O  0.79163657  0.78445345  0.47856370    -0.82300
O212        O  0.71902394  0.72302891  0.48094153    -0.84900
C213        C  0.72117854  0.70075018  0.46862456     1.02700
O214        O  0.70871110  0.71995078  0.45639907    -0.77700
O215        O  0.68954421  0.79200803  0.43596210    -0.77900
C216        C  0.72872021  0.80754841  0.43149942     1.02700
Cr217      Cr  0.73298495  0.86122687  0.45858223     1.93700
Cr218      Cr  0.72629806  0.79157990  0.48500773     1.93200
Cr219      Cr  0.66704068  0.77585155  0.45674962     1.39100
O220        O  0.70916385  0.80966093  0.46671747    -1.23000
O221        O  0.35038436  0.12298714  0.44761615    -0.85200
O222        O  0.30559978  0.11047575  0.47450492    -0.82300
C223        C  0.29081125  0.11871702  0.48759955     0.98200
O224        O  0.28206724  0.16000393  0.49157895    -0.82300
O225        O  0.36873989  0.20494735  0.49186037    -0.85000
C226        C  0.40490059  0.22623871  0.48728278     1.02800
O227        O  0.40548281  0.24428367  0.47421367    -0.77700
O228        O  0.40694673  0.16838392  0.45592374    -0.77900
C229        C  0.39321169  0.12923005  0.45118989     1.02700
O230        O  0.27595699  0.18736043  0.43866346    -0.85200
O231        O  0.22887226  0.17048699  0.46499596    -0.82300
C232        C  0.21478483  0.20923489  0.47021486     0.98200
O233        O  0.24385976  0.23794918  0.47567178    -0.82300
O234        O  0.32615827  0.28618477  0.47929458    -0.84900
C235        C  0.32721958  0.30812479  0.46694455     1.02700
O236        O  0.33618314  0.28718895  0.45477418    -0.77700
O237        O  0.34654079  0.21405876  0.43444421    -0.77900
C238        C  0.30551495  0.20490218  0.42975315     1.02700
Cr239      Cr  0.29256746  0.15155735  0.45703294     1.93700
Cr240      Cr  0.30652172  0.22040537  0.48318577     1.93200
Cr241      Cr  0.37004378  0.22645518  0.45548746     1.39100
O242        O  0.32293691  0.19923626  0.46519030    -1.23000
O243        O  0.18059087  0.61059439  0.54168493    -0.85200
O244        O  0.25873711  0.61141654  0.52362044    -0.82300
C245        C  0.23977651  0.61112152  0.51070421     0.98200
O246        O  0.21677210  0.64593572  0.50618071    -0.82300
O247        O  0.17020925  0.73088477  0.50624790    -0.85000
C248        C  0.12880046  0.72543765  0.51110158     1.02800
O249        O  0.12191506  0.71236100  0.52448167    -0.77700
O250        O  0.13836625  0.66755621  0.55110810    -0.77900
C251        C  0.14284312  0.62479482  0.54757465     1.02700
O252        O  0.22614048  0.66905202  0.56315171    -0.85200
O253        O  0.29996425  0.68127091  0.54301269    -0.82300
C254        C  0.32049768  0.69312311  0.53097768     0.98200
O255        O  0.29916336  0.69120680  0.51844125    -0.82300
O256        O  0.25028209  0.77148362  0.52057564    -0.84900
C257        C  0.22152340  0.80087608  0.52551096     1.02700
O258        O  0.18461792  0.78786435  0.53242287    -0.77700
O259        O  0.20543258  0.74089572  0.55904065    -0.77900
C260        C  0.22009957  0.70994666  0.56800197     1.02700
Cr261      Cr  0.23950313  0.64664994  0.54216922     1.93700
Cr262      Cr  0.23233517  0.70847564  0.51422810     1.93200
Cr263      Cr  0.16629223  0.72486784  0.54117342     1.39100
O264        O  0.21235935  0.69355472  0.53249023    -1.23000
O265        O  0.86603287  0.91225258  0.29647104    -0.85200
O266        O  0.79410037  0.91122423  0.27589148    -0.82300
C267        C  0.81742010  0.91127533  0.26377565     0.98200
O268        O  0.84096216  0.87586604  0.26012040    -0.82300
O269        O  0.88536287  0.79005942  0.26221343    -0.85000
C270        C  0.92524321  0.79701729  0.26808611     1.02800
O271        O  0.92818170  0.80905954  0.28166572    -0.77700
O272        O  0.90560383  0.85556388  0.30725889    -0.77900
C273        C  0.90216003  0.89817692  0.30343206     1.02700
O274        O  0.81322752  0.85619572  0.31652941    -0.85200
O275        O  0.74518621  0.84349007  0.29393785    -0.82300
C276        C  0.72806057  0.83378574  0.28113326     0.98200
O277        O  0.75420338  0.83243588  0.26959324    -0.82300
O278        O  0.80093854  0.75113234  0.27421923    -0.84900
C279        C  0.82626730  0.72180893  0.28096913     1.02700
O280        O  0.86214475  0.73484559  0.28844177    -0.77700
O281        O  0.83617133  0.78399344  0.31409808    -0.77900
C282        C  0.82053087  0.81650516  0.32218545     1.02700
Cr283      Cr  0.80666532  0.87691791  0.29512629     1.93700
Cr284      Cr  0.82174401  0.81370183  0.26800753     1.93200
Cr285      Cr  0.87939629  0.79807477  0.29707525     1.39100
O286        O  0.83610594  0.82918675  0.28678278    -1.23000
O287        O  0.36648664  0.63145948  0.19707191    -0.85200
O288        O  0.32414005  0.61371452  0.22413587    -0.82300
C289        C  0.31017957  0.61950767  0.23745652     0.98200
O290        O  0.30222166  0.66010228  0.24227276    -0.82300
O291        O  0.38886238  0.70523877  0.24315087    -0.85000
C292        C  0.42462806  0.72735150  0.23868091     1.02800
O293        O  0.42485773  0.74708590  0.22587370    -0.77700
O294        O  0.42427692  0.67491273  0.20572485    -0.77900
C295        C  0.40997438  0.63777167  0.19962689     1.02700
O296        O  0.29186658  0.69692684  0.18997326    -0.85200
O297        O  0.24704127  0.67505244  0.21660910    -0.82300
C298        C  0.23348402  0.71187860  0.22320912     0.98200
O299        O  0.26272966  0.74049440  0.22856874    -0.82300
O300        O  0.34520933  0.78850057  0.23240855    -0.84900
C301        C  0.34520936  0.81260019  0.22047878     1.02700
O302        O  0.35359941  0.79380612  0.20790205    -0.77700
O303        O  0.36243134  0.72436053  0.18616014    -0.77900
C304        C  0.32166105  0.71518444  0.18127167     1.02700
Cr305      Cr  0.30984285  0.65807776  0.20763702     1.93700
Cr306      Cr  0.32607062  0.72193471  0.23510069     1.93200
Cr307      Cr  0.38756170  0.73299327  0.20710457     1.39100
O308        O  0.34109909  0.70405999  0.21656942    -1.23000
O309        O  0.20046682  0.13545612  0.30321112    -0.85200
O310        O  0.24419387  0.11681035  0.27655795    -0.82300
C311        C  0.25692957  0.12161410  0.26304606     0.98200
O312        O  0.26353265  0.16214257  0.25776564    -0.82300
O313        O  0.17603134  0.20465591  0.25597188    -0.85000
C314        C  0.13878805  0.22469036  0.26012401     1.02800
O315        O  0.13705529  0.24498792  0.27280405    -0.77700
O316        O  0.14132644  0.17278166  0.29276347    -0.77900
C317        C  0.15769689  0.13725215  0.29922864     1.02700
O318        O  0.27120109  0.20612707  0.30929643    -0.85200
O319        O  0.31846303  0.18224983  0.28327364    -0.82300
C320        C  0.33058464  0.22015158  0.27696173     0.98200
O321        O  0.30024317  0.24629963  0.27100722    -0.82300
O322        O  0.21594299  0.29005501  0.26681333    -0.84900
C323        C  0.21264440  0.31460984  0.27862689     1.02700
O324        O  0.20381649  0.29568594  0.29117455    -0.77700
O325        O  0.19827581  0.22623075  0.31309246    -0.77900
C326        C  0.23976315  0.22127865  0.31799088     1.02700
Cr327      Cr  0.25606116  0.16369298  0.29237583     1.93700
Cr328      Cr  0.23781294  0.22424707  0.26432258     1.93200
Cr329      Cr  0.17392456  0.23308467  0.29184766     1.39100
O330        O  0.22270181  0.20686215  0.28284659    -1.23000
O331        O  0.70304056  0.40876004  0.20202900    -0.85200
O332        O  0.78106173  0.40803374  0.22010604    -0.82300
C333        C  0.76123800  0.41308711  0.23275538     0.98200
O334        O  0.73743298  0.37977522  0.23814708    -0.82300
O335        O  0.68645056  0.29663432  0.23986895    -0.85000
C336        C  0.64531534  0.30342491  0.23488842     1.02800
O337        O  0.63953096  0.31400631  0.22122906    -0.77700
O338        O  0.65734814  0.35236509  0.19376243    -0.77900
C339        C  0.66362852  0.39494226  0.19721435     1.02700
O340        O  0.74631947  0.34353356  0.18171582    -0.85200
O341        O  0.81957432  0.33303448  0.20244256    -0.82300
C342        C  0.84003190  0.32473134  0.21482874     0.98200
O343        O  0.81803542  0.32836515  0.22720597    -0.82300
O344        O  0.76457832  0.24965906  0.22645996    -0.84900
C345        C  0.73535530  0.22077272  0.22127757     1.02700
O346        O  0.69817863  0.23432029  0.21468041    -0.77700
O347        O  0.72074811  0.27438383  0.18760015    -0.77900
C348        C  0.73802775  0.30172889  0.17799178     1.02700
Cr349      Cr  0.76035276  0.37001768  0.20227388     1.93700
Cr350      Cr  0.74993049  0.31473426  0.23152139     1.93200
Cr351      Cr  0.68276066  0.29608463  0.20488450     1.39100
O352        O  0.73079706  0.32662699  0.21290748    -1.23000
C353        C  0.96723008  0.32219131  0.22680829    -0.22300
C354        C  0.97824956  0.27525715  0.22418080     0.09600
C355        C  0.94637943  0.24713141  0.21599443     0.10000
C356        C  0.90259998  0.26568137  0.21163651    -0.17300
C357        C  0.89014210  0.31158128  0.21539588    -0.27700
C358        C  0.92367034  0.34077169  0.22246919     0.18400
C359        C  0.02030180  0.25541909  0.23181169     0.12300
C360        C  0.95811557  0.19729697  0.21227780    -0.12000
H361        H  0.87685335  0.24336882  0.20619176     0.12600
C362        C  0.91403481  0.39132385  0.22592631    -0.22900
H363        H  0.99199981  0.34399273  0.23293307     0.08200
C364        C  0.06647346  0.26408232  0.22668499     0.04600
C365        C  0.10491121  0.25023627  0.23565899    -0.20100
C366        C  0.09809232  0.22859853  0.24973681    -0.12400
C367        C  0.05178888  0.21728840  0.25434850     0.13300
C368        C  0.01359953  0.23107562  0.24537039    -0.22800
C369        C  0.07501033  0.28881360  0.21194364    -0.05900
H370        H  0.14036490  0.25876367  0.23207047     0.14800
C371        C  0.04129186  0.19064399  0.26861716    -0.16100
H372        H  0.97807248  0.22393421  0.24921156     0.09100
H373        H  0.94141098  0.41344829  0.22053963     0.07000
H374        H  0.91509244  0.39690016  0.23831232     0.08200
H375        H  0.87944112  0.40317061  0.22163369     0.07200
H376        H  0.96231192  0.17672138  0.22281248     0.02100
H377        H  0.99138733  0.19612784  0.20575495     0.02600
H378        H  0.93014547  0.18075270  0.20535896     0.06100
H379        H  0.11314970  0.29232669  0.20949646     0.05100
H380        H  0.05960280  0.32433193  0.21230304    -0.00700
H381        H  0.05846476  0.26880850  0.20261943     0.00800
H382        H  0.02074452  0.21289986  0.27642711     0.04500
H383        H  0.07342143  0.17873760  0.27446239     0.06400
H384        H  0.02031059  0.15904246  0.26585741     0.07300
C385        C  0.56114731  0.26431131  0.26647565    -0.22300
C386        C  0.51762631  0.27424343  0.25978045     0.09600
C387        C  0.51640172  0.29760074  0.24577975     0.10000
C388        C  0.55864913  0.30858696  0.23843849    -0.17300
C389        C  0.60270827  0.29652154  0.24460756    -0.27700
C390        C  0.60377772  0.27522516  0.25913008     0.18400
C391        C  0.47339510  0.25766817  0.26696431     0.12300
C392        C  0.47034060  0.30956211  0.23827351    -0.12000
H393        H  0.55694066  0.32561777  0.22755140     0.12600
C394        C  0.64916363  0.26286441  0.26694710    -0.22900
H395        H  0.56165307  0.24688347  0.27731338     0.08200
C396        C  0.45781388  0.21112133  0.26521091     0.04600
C397        C  0.41183793  0.19899445  0.26953586    -0.20100
C398        C  0.38095826  0.23249953  0.27537832    -0.12400
C399        C  0.39783136  0.27819574  0.27818668     0.13300
C400        C  0.44392129  0.29013528  0.27397699    -0.22800
C401        C  0.48896577  0.17484533  0.25813261    -0.05900
H402        H  0.39906242  0.16383822  0.26752482     0.14800
C403        C  0.36750906  0.31425221  0.28572378    -0.16100
H404        H  0.45642679  0.32569695  0.27553400     0.09100
H405        H  0.66895563  0.23704535  0.26015975     0.07000
H406        H  0.64295639  0.24715565  0.27823536     0.08200
H407        H  0.67070539  0.29482156  0.26860059     0.07200
H408        H  0.45005669  0.33377730  0.24551697     0.02100
H409        H  0.44947407  0.27727443  0.23640680     0.02600
H410        H  0.47564276  0.32681715  0.22717556     0.06100
H411        H  0.47110069  0.14041422  0.25736724     0.05100
H412        H  0.52125346  0.17041956  0.26503022    -0.00700
H413        H  0.49892284  0.18590035  0.24655615     0.00800
H414        H  0.35530615  0.30059301  0.29677653     0.04500
H415        H  0.33678161  0.32279414  0.27852788     0.06400
H416        H  0.38710439  0.34721658  0.28780069     0.07300
C417        C  0.57490921  0.48932683  0.20690606    -0.22300
C418        C  0.54811085  0.49166979  0.19367329     0.09600
C419        C  0.55923718  0.46219453  0.18144504     0.10000
C420        C  0.59671799  0.43035484  0.18286600    -0.17300
C421        C  0.62425881  0.42868820  0.19603842    -0.27700
C422        C  0.61294004  0.45851935  0.20823897     0.18400
C423        C  0.51034188  0.52730527  0.19290173     0.12300
C424        C  0.53238247  0.46519992  0.16682860    -0.12000
H425        H  0.60526926  0.40748270  0.17354863     0.12600
C426        C  0.63996451  0.45730460  0.22289229    -0.22900
H427        H  0.56619907  0.51219675  0.21620503     0.08200
C428        C  0.46365587  0.51717119  0.19719754     0.04600
C429        C  0.43086474  0.55367428  0.19824303    -0.20100
C430        C  0.44428550  0.60041430  0.19593599    -0.12400
C431        C  0.49088351  0.61025942  0.19121369     0.13300
C432        C  0.52308494  0.57347978  0.18961222    -0.22800
C433        C  0.44896516  0.46830601  0.20141314    -0.05900
H434        H  0.39527000  0.54592345  0.20163639     0.14800
C435        C  0.50707623  0.65925251  0.18774052    -0.16100
H436        H  0.55904149  0.58093889  0.18638244     0.09100
H437        H  0.63963003  0.42138500  0.22761701     0.07000
H438        H  0.62452800  0.48099927  0.23144719     0.08200
H439        H  0.67674701  0.46873593  0.22099239     0.07200
H440        H  0.53556601  0.50096252  0.16209296     0.02100
H441        H  0.49470967  0.45719165  0.16875721     0.02600
H442        H  0.54600721  0.44020370  0.15834262     0.06100
H443        H  0.41140301  0.46666544  0.20478452     0.05100
H444        H  0.47047766  0.45580830  0.21106405    -0.00700
H445        H  0.45399448  0.44449948  0.19170997     0.00800
H446        H  0.50737754  0.68061503  0.19815820     0.04500
H447        H  0.48336485  0.67531689  0.17924143     0.06400
H448        H  0.54332572  0.65981337  0.18310051     0.07300
C449        C  0.30527057  0.49665093  0.25389962    -0.22300
C450        C  0.26639912  0.50061422  0.26348809     0.09600
C451        C  0.24560218  0.54445697  0.26584812     0.10000
C452        C  0.26267920  0.58323673  0.25785075    -0.17300
C453        C  0.29907695  0.57873015  0.24718330    -0.27700
C454        C  0.32169959  0.53503415  0.24559341     0.18400
C455        C  0.24467595  0.45705262  0.26906235     0.12300
C456        C  0.20452075  0.54988690  0.27639254    -0.12000
H457        H  0.24589025  0.61672942  0.25941072     0.12600
C458        C  0.36267987  0.52810801  0.23509473    -0.22900
H459        H  0.32106846  0.46271442  0.25228104     0.08200
C460        C  0.21416558  0.43153121  0.25961829     0.04600
C461        C  0.20150366  0.38613313  0.26370470    -0.20100
C462        C  0.21827674  0.36565816  0.27705445    -0.12400
C463        C  0.24507134  0.39291285  0.28724363     0.13300
C464        C  0.25858133  0.43833830  0.28298871    -0.22800
C465        C  0.19649414  0.45158421  0.24492869    -0.05900
H466        H  0.17987672  0.36562215  0.25605863     0.14800
C467        C  0.26099741  0.37380057  0.30222791    -0.16100
H468        H  0.28148428  0.45866203  0.29025583     0.09100
H469        H  0.37825503  0.49279342  0.23629886     0.07000
H470        H  0.39063669  0.55414504  0.23755381     0.08200
H471        H  0.35067222  0.53167287  0.22326299     0.07200
H472        H  0.21499644  0.53900289  0.28794226     0.02100
H473        H  0.17473020  0.52779364  0.27254834     0.02600
H474        H  0.19220468  0.58659889  0.27688199     0.06100
H475        H  0.17267409  0.42694631  0.23896951     0.05100
H476        H  0.22650378  0.45947253  0.23734607    -0.00700
H477        H  0.17666860  0.48416914  0.24712743     0.00800
H478        H  0.28179486  0.34159506  0.30058229     0.04500
H479        H  0.22983980  0.36564355  0.30927764     0.06400
H480        H  0.28313766  0.39926955  0.30847161     0.07300
C481        C  0.29859687  0.03782910  0.23202516    -0.22300
C482        C  0.28770708  0.99472195  0.23859384     0.09600
C483        C  0.26451549  0.99334378  0.25262366     0.10000
C484        C  0.25361309  0.03525640  0.25995110    -0.17300
C485        C  0.26586465  0.07897562  0.25375268    -0.27700
C486        C  0.28806839  0.08004819  0.23936465     0.18400
C487        C  0.30499054  0.95133166  0.23144235     0.12300
C488        C  0.25233675  0.94750904  0.26005767    -0.12000
H489        H  0.23624687  0.03358092  0.27081733     0.12600
C490        C  0.30211153  0.12498849  0.23171694    -0.22900
H491        H  0.31664749  0.03830782  0.22126502     0.08200
C492        C  0.27682664  0.92452725  0.22158474     0.04600
C493        C  0.29276927  0.88041993  0.21689395    -0.20100
C494        C  0.33617568  0.86294842  0.22189335    -0.12400
C495        C  0.36557900  0.89130382  0.23094252     0.13300
C496        C  0.34957073  0.93512617  0.23560144    -0.22800
C497        C  0.22952394  0.94187405  0.21643418    -0.05900
H498        H  0.27013042  0.85841643  0.21010713     0.14800
C499        C  0.41364126  0.87595683  0.23613617    -0.16100
H500        H  0.37136125  0.95614724  0.24300971     0.09100
H501        H  0.31904651  0.11872231  0.22062298     0.07000
H502        H  0.32776877  0.14422503  0.23883807     0.08200
H503        H  0.27051480  0.14676296  0.22965465     0.07200
H504        H  0.28484273  0.92708790  0.26211415     0.02100
H505        H  0.22844848  0.92711464  0.25266330     0.02600
H506        H  0.23445637  0.95262888  0.27106108     0.06100
H507        H  0.21195123  0.91657533  0.20879234     0.05100
H508        H  0.23393134  0.97534148  0.21025686    -0.00700
H509        H  0.20630349  0.94757767  0.22630595     0.00800
H510        H  0.44027500  0.90191873  0.23241218     0.04500
H511        H  0.42407719  0.84169105  0.23146699     0.06400
H512        H  0.41436176  0.87366341  0.24863966     0.07300
C513        C  0.02153594  0.95300713  0.31335465    -0.22300
C514        C  0.01440165  0.99870840  0.30825313     0.09600
C515        C  0.96933128  0.01254750  0.30344179     0.10000
C516        C  0.93314258  0.97938964  0.30272953    -0.17300
C517        C  0.94056220  0.93240508  0.30681843    -0.27700
C518        C  0.98501960  0.91975220  0.31296741     0.18400
C519        C  0.05519695  0.03053032  0.30665147     0.12300
C520        C  0.95947107  0.06231831  0.29888329    -0.12000
H521        H  0.89917183  0.99025719  0.29851613     0.12600
C522        C  0.99493957  0.87171527  0.31912238    -0.22900
H523        H  0.05612477  0.94307893  0.31725753     0.08200
C524        C  0.07524252  0.05426119  0.31904279     0.04600
C525        C  0.11089332  0.08740698  0.31645469    -0.20100
C526        C  0.12618368  0.09739748  0.30176383    -0.12400
C527        C  0.10737971  0.07216144  0.28944620     0.13300
C528        C  0.07239322  0.03882585  0.29209799    -0.22800
C529        C  0.05783035  0.04582042  0.33483823    -0.05900
H530        H  0.12542355  0.10702670  0.32583179     0.14800
C531        C  0.12309272  0.07963832  0.27336202    -0.16100
H532        H  0.05723268  0.02000392  0.28261826     0.09100
H533        H  0.97004722  0.86363552  0.32841201     0.07000
H534        H  0.03114291  0.86894917  0.32374160     0.08200
H535        H  0.99146902  0.84528909  0.31010793     0.07200
H536        H  0.98111835  0.07214918  0.28896595     0.02100
H537        H  0.96792944  0.08600457  0.30841344     0.02600
H538        H  0.92196902  0.06749671  0.29581470     0.06100
H539        H  0.07675394  0.06787023  0.34317453     0.05100
H540        H  0.06330519  0.00871997  0.33797564    -0.00700
H541        H  0.01977438  0.05408023  0.33550883     0.00800
H542        H  0.13708517  0.04641515  0.26878176     0.04500
H543        H  0.15097315  0.10640952  0.27221347     0.06400
H544        H  0.09265161  0.09072320  0.26637703     0.07300
C545        C  0.05317952  0.79316591  0.25478676    -0.22300
C546        C  0.04885625  0.76605343  0.24175130     0.09600
C547        C  0.00407304  0.75126511  0.23694165     0.10000
C548        C  0.96446643  0.76309822  0.24553671    -0.17300
C549        C  0.96857633  0.78883587  0.25901557    -0.27700
C550        C  0.01386393  0.80473295  0.26352933     0.18400
C551        C  0.09248805  0.75010281  0.23432871     0.12300
C552        C  0.99816654  0.72288984  0.22278095    -0.12000
H553        H  0.93022664  0.75092782  0.24187409     0.12600
C554        C  0.02184178  0.83310909  0.27759983    -0.22900
H555        H  0.08795997  0.80400586  0.25840825     0.08200
C556        C  0.12163389  0.78101254  0.22619955     0.04600
C557        C  0.16666373  0.76633861  0.22189091    -0.20100
C558        C  0.18301476  0.72139193  0.22543556    -0.12400
C559        C  0.15253153  0.68953562  0.23286136     0.13300
C560        C  0.10763893  0.70447260  0.23715829    -0.22800
C561        C  0.10544547  0.82955503  0.22228056    -0.05900
H562        H  0.18992960  0.79063433  0.21616283     0.14800
C563        C  0.16646647  0.64075977  0.23744381    -0.16100
H564        H  0.08510691  0.68101465  0.24351677     0.09100
H565        H  0.05903221  0.84452235  0.27874198     0.07000
H566        H  0.01350813  0.81144951  0.28761744     0.08200
H567        H  0.99966495  0.86494206  0.27738244     0.07200
H568        H  0.01713173  0.68927024  0.22389835     0.02100
H569        H  0.01255688  0.74256932  0.21301491     0.02600
H570        H  0.96060963  0.71497377  0.22044995     0.06100
H571        H  0.13225026  0.84883110  0.21560345     0.05100
H572        H  0.09852520  0.84969695  0.23271441    -0.00700
H573        H  0.07267979  0.82754050  0.21548505     0.00800
H574        H  0.16328000  0.63702707  0.24987386     0.04500
H575        H  0.20278388  0.63137943  0.23437258     0.06400
H576        H  0.14244915  0.61523070  0.23199768     0.07300
C577        C  0.60851196  0.82414838  0.26283389    -0.22300
C578        C  0.58917421  0.78646782  0.27077430     0.09600
C579        C  0.61298466  0.76866383  0.28352463     0.10000
C580        C  0.65684619  0.78776971  0.28761974    -0.17300
C581        C  0.67750939  0.82366034  0.27906963    -0.27700
C582        C  0.65207718  0.84327922  0.26686282     0.18400
C583        C  0.54501992  0.76554817  0.26489433     0.12300
C584        C  0.59267697  0.72884443  0.29249880    -0.12000
H585        H  0.67637852  0.77267318  0.29694637     0.12600
C586        C  0.66981551  0.88435179  0.25781272    -0.22900
H587        H  0.58969100  0.83829782  0.25318237     0.08200
C588        C  0.50099357  0.78658380  0.26751393     0.04600
C589        C  0.46131748  0.77068748  0.25957030    -0.20100
C590        C  0.46490913  0.73485647  0.24887807    -0.12400
C591        C  0.50853649  0.71230079  0.24675895     0.13300
C592        C  0.54808623  0.72784333  0.25486028    -0.22800
C593        C  0.49628558  0.82684464  0.27828955    -0.05900
H594        H  0.42783049  0.78804027  0.26108859     0.14800
C595        C  0.51471096  0.67254247  0.23584492    -0.16100
H596        H  0.58195584  0.71179533  0.25284639     0.09100
H597        H  0.64293641  0.91239497  0.25786074     0.07000
H598        H  0.67618212  0.87344520  0.24597842     0.08200
H599        H  0.70259930  0.89968792  0.26241580     0.07200
H600        H  0.58851155  0.69776246  0.28516155     0.02100
H601        H  0.55780674  0.73893023  0.29704088     0.02600
H602        H  0.61572003  0.71915292  0.30213209     0.06100
H603        H  0.45935510  0.83909430  0.27908903     0.05100
H604        H  0.51828473  0.85657915  0.27441876    -0.00700
H605        H  0.50796420  0.81591423  0.28971420     0.00800
H606        H  0.54035961  0.68265382  0.22698466     0.04500
H607        H  0.48137672  0.66220848  0.23027500     0.06400
H608        H  0.52832070  0.64155204  0.24197356     0.07300
C609        C  0.72987067  0.09529831  0.23510666    -0.22300
C610        C  0.77583980  0.08076644  0.23195185     0.09600
C611        C  0.80605431  0.11018459  0.22369217     0.10000
C612        C  0.79039628  0.15472496  0.21945498    -0.17300
C613        C  0.74535487  0.17064724  0.22342872    -0.27700
C614        C  0.71429503  0.14014526  0.23116040     0.18400
C615        C  0.79316390  0.03749593  0.23919857     0.12300
C616        C  0.85531234  0.09516176  0.21989511    -0.12000
H617        H  0.81418740  0.17809212  0.21355871     0.12600
C618        C  0.66606950  0.15432573  0.23650953    -0.22900
H619        H  0.70696649  0.07251931  0.24156967     0.08200
C620        C  0.81041895  0.03845945  0.25411305     0.04600
C621        C  0.82133731  0.99643170  0.26136551    -0.20100
C622        C  0.81504206  0.95330314  0.25414916    -0.12400
C623        C  0.79964378  0.95244730  0.23892336     0.13300
C624        C  0.78925185  0.99481034  0.23160493    -0.22800
C625        C  0.81583192  0.08378978  0.26255472    -0.05900
H626        H  0.83304525  0.99707739  0.27302080     0.14800
C627        C  0.79071181  0.90802385  0.23028957    -0.16100
H628        H  0.77603865  0.99440927  0.22014304     0.09100
H629        H  0.66411817  0.15038898  0.24896008     0.07000
H630        H  0.63919773  0.13127773  0.23128604     0.08200
H631        H  0.65688714  0.19085507  0.23382868     0.07200
H632        H  0.85412993  0.06274422  0.21307048     0.02100
H633        H  0.87547265  0.08847988  0.23040671     0.02600
H634        H  0.87422567  0.12224122  0.21330087     0.06100
H635        H  0.82982128  0.07823162  0.27412479     0.05100
H636        H  0.78120182  0.10128924  0.26353580    -0.00700
H637        H  0.84055308  0.10711620  0.25644501     0.00800
H638        H  0.75337267  0.90686948  0.22663170     0.04500
H639        H  0.79750248  0.87599448  0.23688926     0.06400
H640        H  0.81350578  0.90731151  0.22013493     0.07300
C641        C  0.79190967  0.53876773  0.24364014    -0.22300
C642        C  0.78659496  0.53731150  0.25932289     0.09600
C643        C  0.77054455  0.49589780  0.26623510     0.10000
C644        C  0.76157868  0.45628061  0.25728503    -0.17300
C645        C  0.76852888  0.45698860  0.24153994    -0.27700
C646        C  0.78332256  0.49941566  0.23464119     0.18400
C647        C  0.79756018  0.58040986  0.26797104     0.12300
C648        C  0.76378029  0.49331471  0.28305357    -0.12000
H649        H  0.75003969  0.42432389  0.26269233     0.12600
C650        C  0.78971431  0.50437331  0.21781350    -0.22900
H651        H  0.80337276  0.57108073  0.23842425     0.08200
C652        C  0.84437021  0.59592758  0.26992679     0.04600
C653        C  0.85290217  0.64115516  0.27543009    -0.20100
C654        C  0.81567005  0.67150306  0.27877369    -0.12400
C655        C  0.76884236  0.65446068  0.27795499     0.13300
C656        C  0.76046944  0.60908725  0.27257255    -0.22800
C657        C  0.88523867  0.56514148  0.26582214    -0.05900
H658        H  0.88879083  0.65388280  0.27617969     0.14800
C659        C  0.72749550  0.68391796  0.28263971    -0.16100
H660        H  0.72461941  0.59675595  0.27120241     0.09100
H661        H  0.79812591  0.54085131  0.21450706     0.07000
H662        H  0.75686107  0.49426380  0.21187405     0.08200
H663        H  0.81935771  0.48233231  0.21395780     0.07200
H664        H  0.73695861  0.51908625  0.28661667     0.02100
H665        H  0.79753435  0.50110660  0.28884268     0.02600
H666        H  0.75174632  0.45815827  0.28669513     0.06100
H667        H  0.91947158  0.58223382  0.26831310     0.05100
H668        H  0.88432050  0.55691602  0.25360068    -0.00700
H669        H  0.88333803  0.53217001  0.27239426     0.00800
H670        H  0.69413025  0.66368218  0.28246307     0.04500
H671        H  0.72303824  0.71383784  0.27482777     0.06400
H672        H  0.73295245  0.69692282  0.29430418     0.07300
C673        C  0.24785214  0.19866427  0.39061085    -0.22300
C674        C  0.27618248  0.22955725  0.38238486     0.09600
C675        C  0.31182118  0.25474535  0.38988625     0.10000
C676        C  0.32011504  0.24639444  0.40532039    -0.17300
C677        C  0.29287824  0.21411768  0.41360225    -0.27700
C678        C  0.25541730  0.19069376  0.40609257     0.18400
C679        C  0.27007111  0.23163480  0.36572222     0.12300
C680        C  0.34079234  0.29066925  0.38161654    -0.12000
H681        H  0.34815372  0.26525052  0.41093425     0.12600
C682        C  0.22405660  0.15592279  0.41400463    -0.22900
H683        H  0.22041719  0.17972414  0.38474535     0.08200
C684        C  0.29729623  0.20320388  0.35616537     0.04600
C685        C  0.28794262  0.20266178  0.34061886    -0.20100
C686        C  0.25086297  0.22864331  0.33430165    -0.12400
C687        C  0.22408005  0.25796830  0.34391604     0.13300
C688        C  0.23425660  0.25917779  0.35948935    -0.22800
C689        C  0.33493262  0.17170248  0.36246347    -0.05900
H690        H  0.30850955  0.17992414  0.33345633     0.14800
C691        C  0.18496316  0.28825291  0.33795358    -0.16100
H692        H  0.21339894  0.28078540  0.36692705     0.09100
H693        H  0.19801983  0.14003677  0.40619194     0.07000
H694        H  0.20399177  0.17350744  0.42308743     0.08200
H695        H  0.24555978  0.12721898  0.41881522     0.07200
H696        H  0.31734924  0.31826332  0.37707286     0.02100
H697        H  0.35996417  0.27431577  0.37212361     0.02600
H698        H  0.36704386  0.30747682  0.38914813     0.06100
H699        H  0.35240757  0.15116580  0.35347039     0.05100
H700        H  0.31911911  0.14681326  0.37063224    -0.00700
H701        H  0.36230233  0.19260492  0.36828453     0.00800
H702        H  0.17028538  0.31114024  0.34687061     0.04500
H703        H  0.15572864  0.26625029  0.33367185     0.06400
H704        H  0.19844056  0.31096307  0.32876536     0.07300
C705        C  0.33213577  0.43164798  0.48055161    -0.22300
C706        C  0.28635921  0.44617566  0.47714980     0.09600
C707        C  0.25752363  0.41830815  0.46781786     0.10000
C708        C  0.27405576  0.37461657  0.46302704    -0.17300
C709        C  0.31850977  0.35852180  0.46746316    -0.27700
C710        C  0.34857551  0.38805852  0.47586267     0.18400
C711        C  0.26856794  0.48851063  0.48473336     0.12300
C712        C  0.20896561  0.43402096  0.46336058    -0.12000
H713        H  0.25089559  0.35153618  0.45675675     0.12600
C714        C  0.39745106  0.37377921  0.48056916    -0.22900
H715        H  0.35437468  0.45350561  0.48756230     0.08200
C716        C  0.24517957  0.48534990  0.49874465     0.04600
C717        C  0.23414609  0.52635226  0.50656646    -0.20100
C718        C  0.24681959  0.57031657  0.50088018    -0.12400
C719        C  0.27033054  0.57344027  0.48682387     0.13300
C720        C  0.28033990  0.53237854  0.47885079    -0.22800
C721        C  0.23394403  0.43870227  0.50579703    -0.05900
H722        H  0.21686086  0.52407108  0.51745090     0.14800
C723        C  0.28826309  0.61879503  0.48033821    -0.16100
H724        H  0.29945041  0.53445247  0.46827613     0.09100
H725        H  0.39953817  0.37189909  0.49306572     0.07000
H726        H  0.42320301  0.40006694  0.47646515     0.08200
H727        H  0.40791795  0.33951941  0.47589355     0.07200
H728        H  0.21138800  0.46739495  0.45702953     0.02100
H729        H  0.18694729  0.43934132  0.47352222     0.02600
H730        H  0.19109403  0.40792893  0.45606994     0.06100
H731        H  0.21619673  0.44264439  0.51687562     0.05100
H732        H  0.26689023  0.41876895  0.50762333    -0.00700
H733        H  0.21030616  0.41834819  0.49832645     0.00800
H734        H  0.32697768  0.61667704  0.47886870     0.04500
H735        H  0.28107166  0.64940709  0.48754541     0.06400
H736        H  0.27178143  0.62493520  0.46915158     0.07300
C737        C  0.25452693  0.91310211  0.50532115    -0.22300
C738        C  0.25568269  0.94503507  0.51720294     0.09600
C739        C  0.24344239  0.93011045  0.53187801     0.10000
C740        C  0.23052178  0.88310782  0.53426915    -0.17300
C741        C  0.23079958  0.85077256  0.52235856    -0.27700
C742        C  0.24304099  0.86627473  0.50764680     0.18400
C743        C  0.26842875  0.99388813  0.51337733     0.12300
C744        C  0.24557663  0.96324705  0.54500555    -0.12000
H745        H  0.22177552  0.87120767  0.54554070     0.12600
C746        C  0.24416475  0.83524601  0.49391436    -0.22900
H747        H  0.26302356  0.92495118  0.49400418     0.08200
C748        C  0.31338093  0.00494730  0.50761270     0.04600
C749        C  0.32012217  0.04730377  0.49994544    -0.20100
C750        C  0.28325544  0.07928124  0.49812680    -0.12400
C751        C  0.23941622  0.07009312  0.50520009     0.13300
C752        C  0.23261865  0.02728207  0.51263989    -0.22800
C753        C  0.35398389  0.97159563  0.50926460    -0.05900
H754        H  0.35398398  0.05484863  0.49487914     0.14800
C755        C  0.19788706  0.10258970  0.50444829    -0.16100
H756        H  0.19808550  0.01864558  0.51701861     0.09100
H757        H  0.28064912  0.83352003  0.48951512     0.07000
H758        H  0.22127842  0.85029905  0.48499521     0.08200
H759        H  0.23178114  0.79929601  0.49600692     0.07200
H760        H  0.22059825  0.99241470  0.54323029     0.02100
H761        H  0.28175838  0.97751237  0.54609698     0.02600
H762        H  0.23628182  0.94560999  0.55576950     0.06100
H763        H  0.38702254  0.98652070  0.50461945     0.05100
H764        H  0.34667129  0.93860497  0.50317525    -0.00700
H765        H  0.35978729  0.96379209  0.52139804     0.00800
H766        H  0.16766761  0.08424376  0.49915370     0.04500
H767        H  0.20457779  0.13483186  0.49795602     0.06400
H768        H  0.18769297  0.11287306  0.51605708     0.07300
C769        C  0.72638206  0.81360768  0.38858952    -0.22300
C770        C  0.77124066  0.79692268  0.38505825     0.09600
C771        C  0.80171067  0.78274469  0.39676025     0.10000
C772        C  0.78676723  0.78630840  0.41182515    -0.17300
C773        C  0.74195595  0.80357117  0.41542097    -0.27700
C774        C  0.71140348  0.81763406  0.40359813     0.18400
C775        C  0.78671582  0.79874981  0.36910462     0.12300
C776        C  0.84979895  0.76368055  0.39331734    -0.12000
H777        H  0.81011377  0.77554146  0.42083467     0.12600
C778        C  0.66387994  0.83948080  0.40621360    -0.22900
H779        H  0.70348469  0.82520798  0.37955692     0.08200
C780        C  0.77223736  0.76527428  0.35839903     0.04600
C781        C  0.78520335  0.77088927  0.34318997    -0.20100
C782        C  0.81201816  0.80944977  0.33849230    -0.12400
C783        C  0.82817247  0.84192800  0.34943651     0.13300
C784        C  0.81469702  0.83638598  0.36452638    -0.22800
C785        C  0.74294098  0.72389240  0.36304203    -0.05900
H786        H  0.77316361  0.74589783  0.33486867     0.14800
C787        C  0.86069424  0.88215636  0.34586725    -0.16100
H788        H  0.82610927  0.86174872  0.37283382     0.09100
H789        H  0.63607661  0.81669887  0.40138106     0.07000
H790        H  0.66250539  0.87395694  0.40048805     0.08200
H791        H  0.65572518  0.84575236  0.41822085     0.07200
H792        H  0.87116999  0.79049505  0.38740219     0.02100
H793        H  0.84641247  0.73242670  0.38600656     0.02600
H794        H  0.86882079  0.75334275  0.40374695     0.06100
H795        H  0.73502882  0.70075430  0.35332388     0.05100
H796        H  0.70908851  0.73590499  0.36786597    -0.00700
H797        H  0.76217855  0.70319709  0.37165598     0.00800
H798        H  0.84254989  0.91565347  0.34815969     0.04500
H799        H  0.87326098  0.88241622  0.33409667     0.06400
H800        H  0.89242174  0.87994924  0.35315080     0.07300
C801        C  0.51692819  0.93764125  0.45673543    -0.22300
C802        C  0.52404580  0.97463098  0.44665396     0.09600
C803        C  0.56492603  0.97556532  0.43766956     0.10000
C804        C  0.59815467  0.93958161  0.43912868    -0.17300
C805        C  0.59185133  0.90281876  0.44950554    -0.27700
C806        C  0.55018784  0.90179798  0.45835686     0.18400
C807        C  0.49081743  0.01447186  0.44710301     0.12300
C808        C  0.57420493  0.01529352  0.42691296    -0.12000
H809        H  0.62979412  0.94076078  0.43232490     0.12600
C810        C  0.54114886  0.86462664  0.47009470    -0.22900
H811        H  0.48574956  0.93772884  0.46373777     0.08200
C812        C  0.45167179  0.01778511  0.43737124     0.04600
C813        C  0.42078919  0.05587880  0.43875858    -0.20100
C814        C  0.42766759  0.09031483  0.44984997    -0.12400
C815        C  0.46619828  0.08560746  0.45997650     0.13300
C816        C  0.49741157  0.04814605  0.45830711    -0.22800
C817        C  0.44187807  0.98051033  0.42583511    -0.05900
H818        H  0.39091093  0.05860147  0.43118746     0.14800
C819        C  0.47376789  0.11844838  0.47303944    -0.16100
H820        H  0.52689758  0.04452062  0.46598674     0.09100
H821        H  0.53787740  0.83001189  0.46460703     0.07000
H822        H  0.50798650  0.87089241  0.47636660     0.08200
H823        H  0.57027700  0.86412516  0.47845094     0.07200
H824        H  0.57569972  0.04869293  0.43321852     0.02100
H825        H  0.54575832  0.01725278  0.41837083     0.02600
H826        H  0.60807429  0.01089305  0.42086141     0.06100
H827        H  0.40954020  0.98811116  0.41924302     0.05100
H828        H  0.43701869  0.94639398  0.43158968    -0.00700
H829        H  0.47167860  0.97785295  0.41783619     0.00800
H830        H  0.50328514  0.10713775  0.48039569     0.04500
H831        H  0.44159125  0.11986606  0.48011128     0.06400
H832        H  0.48259433  0.15373725  0.46876619     0.07300
C833        C  0.50770097  0.72818677  0.50033893    -0.22300
C834        C  0.50472551  0.74724206  0.51478564     0.09600
C835        C  0.54227607  0.77384715  0.52053482     0.10000
C836        C  0.58218747  0.78132799  0.51148793    -0.17300
C837        C  0.58547729  0.76247129  0.49683456    -0.27700
C838        C  0.54723606  0.73526603  0.49123914     0.18400
C839        C  0.46017230  0.74006821  0.52301426     0.12300
C840        C  0.54019917  0.79399425  0.53618495    -0.12000
H841        H  0.61095963  0.80201750  0.51594380     0.12600
C842        C  0.54667406  0.71354903  0.47572573    -0.22900
H843        H  0.47824899  0.70796012  0.49609144     0.08200
C844        C  0.42152452  0.76946321  0.52016661     0.04600
C845        C  0.37645802  0.75450792  0.52425185    -0.20100
C846        C  0.36912141  0.71071750  0.53098111    -0.12400
C847        C  0.40823132  0.68302053  0.53504467     0.13300
C848        C  0.45351296  0.69816639  0.53096490    -0.22800
C849        C  0.42739366  0.81521648  0.51193396    -0.05900
H850        H  0.34644708  0.77584606  0.52131587     0.14800
C851        C  0.40356952  0.63618306  0.54265767    -0.16100
H852        H  0.48337834  0.67564810  0.53303802     0.09100
H853        H  0.54999374  0.74107021  0.46695998     0.07000
H854        H  0.51339065  0.69443844  0.47344617     0.08200
H855        H  0.57568137  0.68791079  0.47469482     0.07200
H856        H  0.53616353  0.76536792  0.54454432     0.02100
H857        H  0.50983951  0.81801098  0.53715526     0.02600
H858        H  0.57263460  0.81384297  0.53899113     0.06100
H859        H  0.39335046  0.83366157  0.51054847     0.05100
H860        H  0.44224746  0.80910031  0.50053577    -0.00700
H861        H  0.45143943  0.83837724  0.51835403     0.00800
H862        H  0.41860226  0.60872866  0.53529257     0.04500
H863        H  0.36672180  0.62647663  0.54516939     0.06400
H864        H  0.42328218  0.63666184  0.55347752     0.07300
C865        C  0.93715667  0.76526672  0.46892297    -0.22300
C866        C  0.95915872  0.78523503  0.48150377     0.09600
C867        C  0.93669601  0.82150700  0.48946756     0.10000
C868        C  0.89080419  0.83417104  0.48547160    -0.17300
C869        C  0.86739431  0.81150501  0.47367187    -0.27700
C870        C  0.89139126  0.77821259  0.46483760     0.18400
C871        C  0.00362923  0.76511437  0.48712492     0.12300
C872        C  0.96031594  0.84526169  0.50260894    -0.12000
H873        H  0.87210305  0.85975475  0.49215338     0.12600
C874        C  0.86939226  0.75537272  0.45123764    -0.22900
H875        H  0.95504441  0.73815310  0.46264534     0.08200
C876        C  0.00348891  0.72582846  0.49673354     0.04600
C877        C  0.04544084  0.71218500  0.50380535    -0.20100
C878        C  0.08759859  0.73684952  0.50144450    -0.12400
C879        C  0.08779631  0.77491214  0.49115841     0.13300
C880        C  0.04576802  0.78841510  0.48410900    -0.22800
C881        C  0.95868285  0.69941579  0.49993538    -0.05900
H882        H  0.04502328  0.68291014  0.51156659     0.14800
C883        C  0.13121327  0.80344882  0.48819402    -0.16100
H884        H  0.04525550  0.81853846  0.47671801     0.09100
H885        H  0.86832107  0.71697117  0.45284166     0.07000
H886        H  0.89086762  0.76334669  0.44109785     0.08200
H887        H  0.83312220  0.76772838  0.44903587     0.07200
H888        H  0.99315968  0.86252752  0.49874899     0.02100
H889        H  0.96895724  0.81919843  0.51146458     0.02600
H890        H  0.93744714  0.87232296  0.50771199     0.06100
H891        H  0.96461996  0.66987866  0.50783600     0.05100
H892        H  0.94421126  0.68504221  0.48926938    -0.00700
H893        H  0.93238495  0.72312895  0.50506552     0.00800
H894        H  0.15839322  0.78116764  0.48289687     0.04500
H895        H  0.14441377  0.81825450  0.49896407     0.06400
H896        H  0.12427729  0.83300502  0.48038561     0.07300
C897        C  0.95840779  0.49235993  0.54175777    -0.22300
C898        C  0.99091676  0.49067565  0.55358469     0.09600
C899        C  0.98638008  0.45627283  0.56488742     0.10000
C900        C  0.94967866  0.42337948  0.56390015    -0.17300
C901        C  0.91723260  0.42456010  0.55191099    -0.27700
C902        C  0.92182727  0.45968781  0.54066726     0.18400
C903        C  0.03130538  0.52336592  0.55307878     0.12300
C904        C  0.02069243  0.45397846  0.57781117    -0.12000
H905        H  0.94643383  0.39657581  0.57246523     0.12600
C906        C  0.89009620  0.46177832  0.52700771    -0.22900
H907        H  0.96262326  0.51873345  0.53307682     0.08200
C908        C  0.07049635  0.51398695  0.54389494     0.04600
C909        C  0.10638691  0.54734510  0.54265388    -0.20100
C910        C  0.10398145  0.59055256  0.55019245    -0.12400
C911        C  0.06447172  0.59960519  0.55955060     0.13300
C912        C  0.02882743  0.56567822  0.56090076    -0.22800
C913        C  0.07411073  0.46889664  0.53523100    -0.05900
H914        H  0.13604089  0.53983882  0.53540125     0.14800
C915        C  0.05914875  0.64457235  0.56816546    -0.16100
H916        H  0.99825669  0.57253004  0.56783541     0.09100
H917        H  0.89101258  0.42795194  0.52092147     0.07000
H918        H  0.90117241  0.48942661  0.51895274     0.08200
H919        H  0.85353355  0.46980695  0.53046736     0.07200
H920        H  0.01954946  0.48709115  0.58428151     0.02100
H921        H  0.05682898  0.44870048  0.57342231     0.02600
H922        H  0.01235674  0.42483523  0.58564660     0.06100
H923        H  0.10732708  0.46684390  0.52869309     0.05100
H924        H  0.04436835  0.46592296  0.52716546    -0.00700
H925        H  0.07304071  0.43890905  0.54317336     0.00800
H926        H  0.02712757  0.64443675  0.57532435     0.04500
H927        H  0.05591045  0.67429322  0.56018697     0.06400
H928        H  0.08994409  0.64985321  0.57568971     0.07300
C929        C  0.08258054  0.20018292  0.47674280    -0.22300
C930        C  0.07204081  0.24698252  0.47988186     0.09600
C931        C  0.10609478  0.28166511  0.47684965     0.10000
C932        C  0.15162264  0.26825115  0.47272165    -0.17300
C933        C  0.16379972  0.22098732  0.47102414    -0.27700
C934        C  0.12760235  0.18687276  0.47178866     0.18400
C935        C  0.02852731  0.25842152  0.48838499     0.12300
C936        C  0.09464849  0.33287543  0.47814052    -0.12000
H937        H  0.17835447  0.29495756  0.47132119     0.12600
C938        C  0.13584677  0.13658467  0.46765208    -0.22900
H939        H  0.05609594  0.17365370  0.47880255     0.08200
C940        C  0.98291034  0.25332181  0.48233628     0.04600
C941        C  0.94371000  0.26442370  0.49132474    -0.20100
C942        C  0.94888565  0.28097955  0.50621757    -0.12400
C943        C  0.99522238  0.28690464  0.51206751     0.13300
C944        C  0.03388471  0.27467565  0.50315683    -0.22800
C945        C  0.97552658  0.23697056  0.46637232    -0.05900
H946        H  0.90877324  0.25980669  0.48666469     0.14800
C947        C  0.00524202  0.30581977  0.52764557    -0.16100
H948        H  0.06913393  0.27792563  0.50776187     0.09100
H949        H  0.10338911  0.11525837  0.46883936     0.07000
H950        H  0.16306670  0.12096258  0.47498122     0.08200
H951        H  0.14734257  0.13446543  0.45570878     0.07200
H952        H  0.08580768  0.34209023  0.48993288     0.02100
H953        H  0.06431275  0.34122038  0.47072169     0.02600
H954        H  0.12473812  0.35517604  0.47464037     0.06100
H955        H  0.93768800  0.23662615  0.46325820     0.05100
H956        H  0.98913297  0.20100737  0.46500836    -0.00700
H957        H  0.99420484  0.26067324  0.45846119     0.00800
H958        H  0.04355851  0.30890093  0.52990699     0.04500
H959        H  0.99050643  0.28207963  0.53635482     0.06400
H960        H  0.99008651  0.34131197  0.52879558     0.07300
C961        C  0.60143681  0.23249593  0.52738255    -0.22300
C962        C  0.57006093  0.26728052  0.52278069     0.09600
C963        C  0.58197526  0.31471137  0.52478324     0.10000
C964        C  0.62660420  0.32627072  0.53041801    -0.17300
C965        C  0.65954074  0.29145019  0.53372305    -0.27700
C966        C  0.64619533  0.24405240  0.53282334     0.18400
C967        C  0.52814216  0.25352706  0.51398799     0.12300
C968        C  0.54871670  0.35294334  0.52011477    -0.12000
H969        H  0.63696309  0.36257277  0.53124970     0.12600
C970        C  0.67904033  0.20501472  0.53696138    -0.22900
H971        H  0.59192323  0.19606313  0.52591651     0.08200
C972        C  0.53145811  0.24651875  0.49829696     0.04600
C973        C  0.49074790  0.23642879  0.49005076    -0.20100
C974        C  0.44670418  0.23241790  0.49710531    -0.12400
C975        C  0.44369958  0.23824460  0.51296621     0.13300
C976        C  0.48463682  0.24887873  0.52120675    -0.22800
C977        C  0.57789663  0.25061546  0.49020132    -0.05900
H978        H  0.49330471  0.23234251  0.47793392     0.14800
C979        C  0.39749555  0.23547409  0.52121027    -0.16100
H980        H  0.48267464  0.25442382  0.53327906     0.09100
H981        H  0.68686016  0.18368578  0.52682961     0.07000
H982        H  0.66211783  0.18248843  0.54560472     0.08200
H983        H  0.71259007  0.21793271  0.54176748     0.07200
H984        H  0.51540703  0.34970613  0.52654751     0.02100
H985        H  0.54098719  0.35024311  0.50786651     0.02600
H986        H  0.56378924  0.38809501  0.52229446     0.06100
H987        H  0.57414837  0.24433272  0.47789774     0.05100
H988        H  0.60296592  0.22451518  0.49476466    -0.00700
H989        H  0.59268603  0.28615942  0.49178951     0.00800
H990        H  0.40167327  0.24297013  0.53342880     0.04500
H991        H  0.38248244  0.19984468  0.52015621     0.06400
H992        H  0.37257747  0.26141606  0.51645670     0.07300
C993        C  0.77497661  0.08016891  0.53297693    -0.22300
C994        C  0.78761599  0.06370025  0.51865586     0.09600
C995        C  0.81640680  0.09151050  0.50927402     0.10000
C996        C  0.82995102  0.13614429  0.51411146    -0.17300
C997        C  0.81522174  0.15374042  0.52806481    -0.27700
C998        C  0.78847178  0.12498180  0.53781990     0.18400
C999        C  0.76853894  0.01849744  0.51320175     0.12300
C1000       C  0.83136947  0.07474927  0.49391475    -0.12000
H1001       H  0.85013361  0.15845754  0.50661805     0.12600
C1002       C  0.77298276  0.14077329  0.55321859    -0.22900
H1003       H  0.75330961  0.05849432  0.54022796     0.08200
C1004       C  0.79335957  0.97644526  0.51515798     0.04600
C1005       C  0.77727911  0.93589013  0.50789694    -0.20100
C1006       C  0.73670903  0.93632600  0.49876098    -0.12400
C1007       C  0.70950698  0.97765370  0.49801098     0.13300
C1008       C  0.72633009  0.01841082  0.50499877    -0.22800
C1009       C  0.83750723  0.97478491  0.52454434    -0.05900
H1010       H  0.79799549  0.90428787  0.50873464     0.14800
C1011       C  0.66232235  0.97997947  0.49026670    -0.16100
H1012       H  0.70666769  0.05060468  0.50387335     0.09100
H1013       H  0.78799468  0.11714110  0.56190419     0.07000
H1014       H  0.73409340  0.13917479  0.55399702     0.08200
H1015       H  0.78452290  0.17683749  0.55585120     0.07200
H1016       H  0.79990121  0.06808177  0.48680920     0.02100
H1017       H  0.85183915  0.04200848  0.49503864     0.02600
H1018       H  0.85374510  0.10087010  0.48803470     0.06100
H1019       H  0.85267481  0.93912293  0.52493291     0.05100
H1020       H  0.82943610  0.98563312  0.53627385    -0.00700
H1021       H  0.86436383  0.99873582  0.51975826     0.00800
H1022       H  0.63579398  0.99375825  0.49827789     0.04500
H1023       H  0.64925939  0.94546371  0.48651067     0.06400
H1024       H  0.66442722  0.00376657  0.48038964     0.07300
C1025       C  0.72394205  0.49857020  0.49671801    -0.22300
C1026       C  0.75629772  0.51107223  0.48553326     0.09600
C1027       C  0.79581062  0.48224810  0.48303347     0.10000
C1028       C  0.80310164  0.44298769  0.49232201    -0.17300
C1029       C  0.77167147  0.43146497  0.50400471    -0.27700
C1030       C  0.73040886  0.45887049  0.50575544     0.18400
C1031       C  0.75076800  0.55743652  0.47812188     0.12300
C1032       C  0.83002521  0.49254998  0.47048778    -0.12000
H1033       H  0.83416776  0.42175392  0.49063422     0.12600
C1034       C  0.69210346  0.44633468  0.51679768    -0.22900
H1035       H  0.69390065  0.52094579  0.49870111     0.08200
C1036       C  0.71116332  0.56924367  0.46918893     0.04600
C1037       C  0.70401548  0.61618989  0.46494661    -0.20100
C1038       C  0.73598193  0.65119205  0.46923178    -0.12400
C1039       C  0.77775931  0.63817804  0.47682174     0.13300
C1040       C  0.78376459  0.59207791  0.48159535    -0.22800
C1041       C  0.67629316  0.53261107  0.46429138    -0.05900
H1042       H  0.67209596  0.62594915  0.45903446     0.14800
C1043       C  0.81690531  0.67207223  0.47999739    -0.16100
H1044       H  0.81422773  0.58332693  0.48843549     0.09100
H1045       H  0.68017242  0.41007895  0.51463927     0.07000
H1046       H  0.66100271  0.46943648  0.51562234     0.08200
H1047       H  0.70496159  0.44989663  0.52855707     0.07200
H1048       H  0.84802982  0.52634616  0.47242747     0.02100
H1049       H  0.81093202  0.49394348  0.45956446     0.02600
H1050       H  0.85754022  0.46524469  0.46964929     0.06100
H1051       H  0.64860135  0.54754355  0.45688291     0.05100
H1052       H  0.65864997  0.51684400  0.47421481    -0.00700
H1053       H  0.69476399  0.50489541  0.45790039     0.00800
H1054       H  0.81945087  0.67879463  0.49229925     0.04500
H1055       H  0.81179455  0.70513438  0.47388444     0.06400
H1056       H  0.85074743  0.65739616  0.47597122     0.07300
C1057       C  0.03801034  0.45484016  0.95961391    -0.22300
C1058       C  0.02754142  0.47190622  0.94520031     0.09600
C1059       C  0.05325487  0.45571040  0.93264236     0.10000
C1060       C  0.08859620  0.42215556  0.93483057    -0.17300
C1061       C  0.09805394  0.40408560  0.94923062    -0.27700
C1062       C  0.07288989  0.42124893  0.96183672     0.18400
C1063       C  0.99097464  0.50841096  0.94390304     0.12300
C1064       C  0.04243504  0.47268612  0.91693658    -0.12000
H1065       H  0.10788093  0.40898729  0.92521129     0.12600
C1066       C  0.08238845  0.40606211  0.97787119    -0.22900
H1067       H  0.01898710  0.46823792  0.96926639     0.08200
C1068       C  0.94310020  0.49858411  0.94666897     0.04600
C1069       C  0.91093577  0.53554376  0.94746169    -0.20100
C1070       C  0.92557469  0.58215121  0.94582995    -0.12400
C1071       C  0.97291489  0.59143331  0.94179288     0.13300
C1072       C  0.00511655  0.55446583  0.94115239    -0.22800
C1073       C  0.92597664  0.44923685  0.94892109    -0.05900
H1074       H  0.87445891  0.52806296  0.94991573     0.14800
C1075       C  0.98950347  0.63961905  0.93750562    -0.16100
H1076       H  0.04186656  0.56162406  0.93883612     0.09100
H1077       H  0.05071946  0.38856415  0.98250828     0.07000
H1078       H  0.09002127  0.43716043  0.98491862     0.08200
H1079       H  0.11282287  0.38229913  0.97898033     0.07200
H1080       H  0.04877098  0.51080892  0.91612474     0.02100
H1081       H  0.00508871  0.46516178  0.91417961     0.02600
H1082       H  0.06482384  0.45528138  0.90837953     0.06100
H1083       H  0.88727497  0.44777543  0.95052980     0.05100
H1084       H  0.94263163  0.43365071  0.95906177    -0.00700
H1085       H  0.93491978  0.42796767  0.93887582     0.00800
H1086       H  0.02663508  0.63950513  0.93363174     0.04500
H1087       H  0.98751323  0.66344022  0.94722718     0.06400
H1088       H  0.96742870  0.65337260  0.92817457     0.07300
C1089       C  0.26791018  0.71196298  0.14141315    -0.22300
C1090       C  0.29872587  0.74177154  0.13367803     0.09600
C1091       C  0.33544432  0.76385524  0.14165122     0.10000
C1092       C  0.34070822  0.75551450  0.15715207    -0.17300
C1093       C  0.31053674  0.72506830  0.16505413    -0.27700
C1094       C  0.27328305  0.70311548  0.15697925     0.18400
C1095       C  0.29316861  0.74921227  0.11716209     0.12300
C1096       C  0.36993658  0.79544128  0.13369713    -0.12000
H1097       H  0.36925338  0.77262645  0.16309469     0.12600
C1098       C  0.23987711  0.66932693  0.16443030    -0.22900
H1099       H  0.23982613  0.69503904  0.13515080     0.08200
C1100       C  0.31178002  0.71755396  0.10660861     0.04600
C1101       C  0.31279691  0.72972620  0.09124737    -0.20100
C1102       C  0.29601181  0.77318125  0.08608105    -0.12400
C1103       C  0.27457297  0.80366583  0.09671207     0.13300
C1104       C  0.27346341  0.79105676  0.11205251    -0.22800
C1105       C  0.33208458  0.67158163  0.11163258    -0.05900
H1106       H  0.32847444  0.70562763  0.08333115     0.14800
C1107       C  0.25336731  0.84988423  0.09226318    -0.16100
H1108       H  0.25883382  0.81494677  0.12028022     0.09100
H1109       H  0.25979932  0.63969232  0.16934711     0.07000
H1110       H  0.21409096  0.65469495  0.15627366     0.08200
H1111       H  0.21969777  0.68735380  0.17339071     0.07200
H1112       H  0.35120599  0.82569338  0.12870668     0.02100
H1113       H  0.38798541  0.77585525  0.12460168     0.02600
H1114       H  0.39718309  0.80912474  0.14152217     0.06100
H1115       H  0.34573623  0.65107510  0.10197267     0.05100
H1116       H  0.30447066  0.65049701  0.11730641    -0.00700
H1117       H  0.36153486  0.67771151  0.11962662     0.00800
H1118       H  0.22600496  0.84445871  0.08349066     0.04500
H1119       H  0.28113501  0.87377445  0.08801231     0.06400
H1120       H  0.23633522  0.86747154  0.10197822     0.07300
C1121       C  0.08067252  0.80250137  0.01818686    -0.22300
C1122       C  0.06645093  0.75813218  0.02303325     0.09600
C1123       C  0.09593112  0.73182948  0.03259400     0.10000
C1124       C  0.14019643  0.74986097  0.03657898    -0.17300
C1125       C  0.15585492  0.79265850  0.03073129    -0.27700
C1126       C  0.12520766  0.82001928  0.02181253     0.18400
C1127       C  0.02431275  0.73773285  0.01585500     0.12300
C1128       C  0.08167747  0.68390595  0.03787895    -0.05600
H1129       H  0.16401600  0.72897059  0.04334766     0.12600
C1130       C  0.13879301  0.86713111  0.01557075    -0.22900
H1131       H  0.05785442  0.82248900  0.01080888     0.08200
C1132       C  0.97861930  0.74534326  0.02145844     0.04600
C1133       C  0.93970109  0.73178484  0.01269998    -0.20100
C1134       C  0.94584801  0.71271126  0.99826020    -0.12400
C1135       C  0.99174015  0.70352698  0.99298001     0.13300
C1136       C  0.03039432  0.71553734  0.00195520    -0.22800
C1137       C  0.97109534  0.76947737  0.03631714    -0.05900
H1138       H  0.90444055  0.73888029  0.01670356     0.14800
C1139       C  0.00015917  0.68224379  0.97774176    -0.16100
H1140       H  0.06577399  0.71000739  0.99774298     0.09100
H1141       H  0.11316569  0.89368187  0.01944460     0.07000
H1142       H  0.13814834  0.86595900  0.00306154     0.08200
H1143       H  0.17416965  0.87868168  0.01924511     0.07200
H1144       H  0.07625053  0.66070241  0.02801205     0.02100
H1145       H  0.04849299  0.68605575  0.04440188     0.02600
H1146       H  0.10894905  0.66797965  0.04523150     0.06100
H1147       H  0.93312941  0.77289600  0.03900457     0.05100
H1148       H  0.98669483  0.80501189  0.03592400    -0.00700
H1149       H  0.98807464  0.74923150  0.04550070     0.00800
H1150       H  0.98783196  0.70668271  0.96888839     0.04500
H1151       H  0.98102431  0.64854033  0.97684237     0.06400
H1152       H  0.03807303  0.67548546  0.97570908     0.07300
C1153       C  0.53064324  0.78448943  0.00065466    -0.22300
C1154       C  0.52818694  0.75221416  0.98881262     0.09600
C1155       C  0.48407869  0.73407416  0.98448011     0.10000
C1156       C  0.44382166  0.74641731  0.99269568    -0.17300
C1157       C  0.44638871  0.77658503  0.00519322    -0.27700
C1158       C  0.49040883  0.79745768  0.00880049     0.18400
C1159       C  0.57281408  0.73487603  0.98219092     0.12300
C1160       C  0.47942542  0.70166836  0.97119442    -0.12000
H1161       H  0.41036417  0.73090312  0.98962516     0.12600
C1162       C  0.49580497  0.83343896  0.02111192    -0.22900
H1163       H  0.56465253  0.79844075  0.00387882     0.08200
C1164       C  0.60335082  0.76419472  0.97394114     0.04600
C1165       C  0.64831067  0.74796863  0.97010390    -0.20100
C1166       C  0.66317900  0.70284413  0.97410190    -0.12400
C1167       C  0.63131951  0.67238665  0.98149284     0.13300
C1168       C  0.58671605  0.68904081  0.98551815    -0.22800
C1169       C  0.58872173  0.81257546  0.96922820    -0.05900
H1170       H  0.67257321  0.77110035  0.96437283     0.14800
C1171       C  0.64338740  0.62322138  0.98620614    -0.16100
H1172       H  0.56333988  0.66669509  0.99191557     0.09100
H1173       H  0.53181458  0.84854147  0.02134514     0.07000
H1174       H  0.48948645  0.81740241  0.03232842     0.08200
H1175       H  0.47078501  0.86256192  0.01920503     0.07200
H1176       H  0.49912334  0.66895200  0.97328835     0.02100
H1177       H  0.49352468  0.71897283  0.96092937     0.02600
H1178       H  0.44216499  0.69212457  0.96900564     0.06100
H1179       H  0.61626753  0.83004457  0.96235727     0.05100
H1180       H  0.58217625  0.83455180  0.97928465    -0.00700
H1181       H  0.55613145  0.81051981  0.96234497     0.00800
H1182       H  0.63979732  0.61978027  0.99862911     0.04500
H1183       H  0.67943769  0.61249629  0.98323086     0.06400
H1184       H  0.61862557  0.59848119  0.98072181     0.07300
C1185       C  0.25954023  0.57779407  0.02703502    -0.22300
C1186       C  0.28849669  0.55603844  0.01638271     0.09600
C1187       C  0.32921223  0.57937988  0.01118081     0.10000
C1188       C  0.33940462  0.62442477  0.01650176    -0.17300
C1189       C  0.30897896  0.64723546  0.02647780    -0.27700
C1190       C  0.26918700  0.62321335  0.03212903     0.18400
C1191       C  0.27260528  0.51173024  0.00933958     0.12300
C1192       C  0.36032440  0.55781929  0.99936036    -0.12000
H1193       H  0.36955515  0.64325354  0.01202181     0.12600
C1194       C  0.23598162  0.64480022  0.04335092    -0.22900
H1195       H  0.22816867  0.55986581  0.03097477     0.08200
C1196       C  0.28817213  0.46768903  0.01433910     0.04600
C1197       C  0.27481677  0.42739131  0.00630928    -0.20100
C1198       C  0.24642748  0.43005161  0.99327694    -0.12400
C1199       C  0.22978743  0.47472018  0.98862535     0.13300
C1200       C  0.24286572  0.51459169  0.99681113    -0.22800
C1201       C  0.31897035  0.46338583  0.02809731    -0.05900
H1202       H  0.28767796  0.39372123  0.01005892     0.14800
C1203       C  0.19853414  0.48153802  0.97503113    -0.16100
H1204       H  0.23091304  0.54869135  0.99315577     0.09100
H1205       H  0.23394941  0.62235644  0.05355667     0.07000
H1206       H  0.20039002  0.64755602  0.03827340     0.08200
H1207       H  0.24726461  0.68003436  0.04704837     0.07200
H1208       H  0.33969020  0.55129630  0.98893236     0.02100
H1209       H  0.37475037  0.52428675  0.00354762     0.02600
H1210       H  0.39034336  0.58096162  0.99640583     0.06100
H1211       H  0.32809075  0.42645751  0.03051944     0.05100
H1212       H  0.30031983  0.47771533  0.03805123    -0.00700
H1213       H  0.35216841  0.48310655  0.02641248     0.00800
H1214       H  0.18675921  0.51828958  0.97384041     0.04500
H1215       H  0.16666598  0.45953494  0.97608258     0.06400
H1216       H  0.21785385  0.47250730  0.96457541     0.07300
C1217       C  0.19167537  0.06992648  0.98747184    -0.22300
C1218       C  0.23091791  0.05033036  0.98041427     0.09600
C1219       C  0.25276361  0.07402972  0.96835330     0.10000
C1220       C  0.23678961  0.11870155  0.96432880    -0.17300
C1221       C  0.20056635  0.14024434  0.97245203    -0.27700
C1222       C  0.17618729  0.11469284  0.98366540     0.18400
C1223       C  0.25117949  0.00775132  0.98717178     0.12300
C1224       C  0.29420301  0.05315019  0.96030491    -0.12000
H1225       H  0.25481910  0.13815424  0.95556194     0.12600
C1226       C  0.13417180  0.13367781  0.99197603    -0.22900
H1227       H  0.17447647  0.05106556  0.99653276     0.08200
C1228       C  0.27923038  0.01077686  0.00028112     0.04600
C1229       C  0.29204347  0.96983311  0.00784574    -0.20100
C1230       C  0.27754666  0.92603222  0.00260116    -0.12400
C1231       C  0.25085292  0.92284241  0.98912821     0.13300
C1232       C  0.23826583  0.96397305  0.98151953    -0.22800
C1233       C  0.29457644  0.05733196  0.00649376    -0.05900
H1234       H  0.31229308  0.97203943  0.01821398     0.14800
C1235       C  0.23278055  0.87724811  0.98292360    -0.16100
H1236       H  0.21636046  0.96199525  0.97148216     0.09100
H1237       H  0.14250045  0.13647049  0.00417413     0.07000
H1238       H  0.10391382  0.10951904  0.99053827     0.08200
H1239       H  0.12292406  0.16833745  0.98780132     0.07200
H1240       H  0.28375323  0.01945502  0.95511457     0.02100
H1241       H  0.32326923  0.04700298  0.96843568     0.02600
H1242       H  0.30746367  0.07652188  0.95123865     0.06100
H1243       H  0.31691729  0.05331055  0.01670172     0.05100
H1244       H  0.26337368  0.07832028  0.00964657    -0.00700
H1245       H  0.31520992  0.07653609  0.99784721     0.00800
H1246       H  0.19385405  0.87850073  0.98208519     0.04500
H1247       H  0.24210025  0.84674122  0.98997742     0.06400
H1248       H  0.24741982  0.87170441  0.97146419     0.07300
C1249       C  0.69618876  0.25594947  0.10872539    -0.22300
C1250       C  0.74089183  0.24901325  0.11498563     0.09600
C1251       C  0.77613212  0.22754384  0.10625445     0.10000
C1252       C  0.76592512  0.21404325  0.09134956    -0.17300
C1253       C  0.72105590  0.22083675  0.08505020    -0.27700
C1254       C  0.68539230  0.24129709  0.09402273     0.18400
C1255       C  0.74832821  0.26189397  0.13104757     0.12300
C1256       C  0.82433305  0.21892254  0.11268898    -0.12000
H1257       H  0.79319298  0.19807707  0.08454621     0.12600
C1258       C  0.63492170  0.24574775  0.08896090    -0.22900
H1259       H  0.66885921  0.27146547  0.11561410     0.08200
C1260       C  0.75589850  0.30849586  0.13547812     0.04600
C1261       C  0.75422438  0.32011273  0.15087603    -0.20100
C1262       C  0.74566745  0.28606420  0.16206063    -0.12400
C1263       C  0.74270659  0.23848911  0.15754706     0.13300
C1264       C  0.74339357  0.22731064  0.14210428    -0.22800
C1265       C  0.76544485  0.34589573  0.12391252    -0.05900
H1266       H  0.75824280  0.35637116  0.15410481     0.14800
C1267       C  0.73905282  0.19896835  0.16875478    -0.16100
H1268       H  0.73866789  0.19140369  0.13857316     0.09100
H1269       H  0.62521647  0.28319561  0.08831401     0.07000
H1270       H  0.61167632  0.22821028  0.09729964     0.08200
H1271       H  0.62764419  0.22928705  0.07792893     0.07200
H1272       H  0.82169051  0.19545752  0.12263056     0.02100
H1273       H  0.84042704  0.25251888  0.11620523     0.02600
H1274       H  0.84794259  0.20225654  0.10431807     0.06100
H1275       H  0.77148492  0.38042886  0.12925129     0.05100
H1276       H  0.73511398  0.34903940  0.11609149    -0.00700
H1277       H  0.79735627  0.33673323  0.11736042     0.00800
H1278       H  0.70492559  0.20039384  0.17477353     0.04500
H1279       H  0.76857083  0.20101679  0.17694725     0.06400
H1280       H  0.74099346  0.16438815  0.16315276     0.07300
C1281       C  0.49095113  0.93836782  0.06480800    -0.22300
C1282       C  0.49340973  0.97575023  0.05466382     0.09600
C1283       C  0.45700749  0.98250678  0.04407934     0.10000
C1284       C  0.41953823  0.95070350  0.04357351    -0.17300
C1285       C  0.41759492  0.91194313  0.05333445    -0.27700
C1286       C  0.45347681  0.90634868  0.06434687     0.18400
C1287       C  0.53509235  0.00675546  0.05487476     0.12300
C1288       C  0.45787231  0.02319713  0.03326943    -0.12000
H1289       H  0.39227492  0.95549265  0.03514417     0.12600
C1290       C  0.45246590  0.86741286  0.07580046    -0.22900
H1291       H  0.51903317  0.93386639  0.07299027     0.08200
C1292       C  0.53923227  0.04382804  0.06520845     0.04600
C1293       C  0.57664624  0.07557602  0.06372792    -0.20100
C1294       C  0.61058329  0.07042227  0.05233188    -0.12400
C1295       C  0.60762245  0.03141447  0.04248805     0.13300
C1296       C  0.56974231  0.00029006  0.04389722    -0.22800
C1297       C  0.50364696  0.05031376  0.07758089    -0.05900
H1298       H  0.57906580  0.10488119  0.07138959     0.14800
C1299       C  0.64269098  0.02320442  0.03000503    -0.16100
H1300       H  0.56629755  0.97131614  0.03611852     0.09100
H1301       H  0.48132547  0.87086529  0.08418602     0.07000
H1302       H  0.45695525  0.83325134  0.07013050     0.08200
H1303       H  0.41864027  0.86800300  0.08203989     0.07200
H1304       H  0.48927754  0.02098841  0.02589188     0.02100
H1305       H  0.45910511  0.05640288  0.03969224     0.02600
H1306       H  0.42619947  0.02382679  0.02592350     0.06100
H1307       H  0.51181285  0.08130838  0.08462209     0.05100
H1308       H  0.50344689  0.01914506  0.08504046    -0.00700
H1309       H  0.46810781  0.05501148  0.07261961     0.00800
H1310       H  0.67809760  0.01680552  0.03485309     0.04500
H1311       H  0.64384530  0.05393630  0.02237424     0.06400
H1312       H  0.63337294  0.99226045  0.02307874     0.07300
C1313       C  0.41992914  0.21537623  0.97428005    -0.22300
C1314       C  0.45102943  0.24949994  0.97955769     0.09600
C1315       C  0.43763763  0.29687211  0.97937492     0.10000
C1316       C  0.39183562  0.30874094  0.97492050    -0.17300
C1317       C  0.35905157  0.27404614  0.97110473    -0.27700
C1318       C  0.37380369  0.22691021  0.97019943     0.18400
C1319       C  0.49377187  0.23412700  0.98759994     0.12300
C1320       C  0.47083827  0.33443913  0.98469138    -0.12000
H1321       H  0.38057685  0.34480048  0.97554435     0.12600
C1322       C  0.34095336  0.18845830  0.96527746    -0.22900
H1323       H  0.43083198  0.17909922  0.97438363     0.08200
C1324       C  0.49150806  0.22234140  0.00301404     0.04600
C1325       C  0.53268363  0.21001236  0.01064251    -0.20100
C1326       C  0.57652389  0.20953474  0.00332176    -0.12400
C1327       C  0.57827672  0.21948783  0.98758983     0.13300
C1328       C  0.53667001  0.23168887  0.97995281    -0.22800
C1329       C  0.44563512  0.22379647  0.01151897    -0.05900
H1330       H  0.53059372  0.20226989  0.02260212     0.14800
C1331       C  0.62328810  0.21718925  0.97865928    -0.16100
H1332       H  0.53762686  0.24015033  0.96804266     0.09100
H1333       H  0.31265950  0.18345523  0.97371718     0.07000
H1334       H  0.35949239  0.15456287  0.96415859     0.08200
H1335       H  0.32536399  0.19727169  0.95414508     0.07200
H1336       H  0.50302879  0.33430019  0.97762387     0.02100
H1337       H  0.48075640  0.32809516  0.99663742     0.02600
H1338       H  0.45469538  0.36961618  0.98392131     0.06100
H1339       H  0.45017988  0.21396859  0.02355964     0.05100
H1340       H  0.42019128  0.19903263  0.00638897    -0.00700
H1341       H  0.43083824  0.25958279  0.01109368     0.00800
H1342       H  0.61702274  0.22275028  0.96641692     0.04500
H1343       H  0.63959177  0.18229228  0.98006216     0.06400
H1344       H  0.64801411  0.24480063  0.98244510     0.07300
C1345       C  0.04079923  0.24424513  0.02156881    -0.22300
C1346       C  0.99715896  0.25547557  0.01523140     0.09600
C1347       C  0.99496171  0.28013914  0.00148003     0.10000
C1348       C  0.03663693  0.28990936  0.99373560    -0.17300
C1349       C  0.08035226  0.27649148  0.99960485    -0.27700
C1350       C  0.08270955  0.25441133  0.01389325     0.18400
C1351       C  0.95418533  0.23527312  0.02182811     0.12300
C1352       C  0.94850876  0.29428641  0.99467476    -0.12000
H1353       H  0.03498616  0.30614557  0.98270630     0.12600
C1354       C  0.12805897  0.23814612  0.02094900    -0.22900
H1355       H  0.04202007  0.22511048  0.03210105     0.08200
C1356       C  0.93705024  0.19196859  0.01662891     0.04600
C1357       C  0.89250821  0.17698253  0.02118363    -0.20100
C1358       C  0.86471695  0.20446861  0.03069265    -0.12400
C1359       C  0.88281640  0.24675652  0.03652481     0.13300
C1360       C  0.92773360  0.26158269  0.03204034    -0.22800
C1361       C  0.96477578  0.16267839  0.00569053    -0.05900
H1362       H  0.87819879  0.14481931  0.01667052     0.14800
C1363       C  0.85482359  0.27845162  0.04661901    -0.16100
H1364       H  0.94117022  0.29491575  0.03590197     0.09100
H1365       H  0.12637653  0.19989914  0.02288269     0.07000
H1366       H  0.13300519  0.25576226  0.03198224     0.08200
H1367       H  0.15937365  0.24538030  0.01392667     0.07200
H1368       H  0.92948866  0.31738462  0.00262863     0.02100
H1369       H  0.92669738  0.26291447  0.99237981     0.02600
H1370       H  0.95323895  0.31352068  0.98388998     0.06100
H1371       H  0.94596963  0.12992443  0.00273828     0.05100
H1372       H  0.99914832  0.15319344  0.01077315    -0.00700
H1373       H  0.97095060  0.18248753  0.99509987     0.00800
H1374       H  0.87436175  0.28425634  0.05730410     0.04500
H1375       H  0.81987889  0.26405209  0.04954674     0.06400
H1376       H  0.84951792  0.31257536  0.04091208     0.07300
C1377       C  0.73478868  0.00591010  0.98321500    -0.22300
C1378       C  0.77306503  0.97824269  0.98754653     0.09600
C1379       C  0.80174063  0.99260060  0.99968210     0.10000
C1380       C  0.79049749  0.03343505  0.00753833    -0.17300
C1381       C  0.75130656  0.06083840  0.00359796    -0.27700
C1382       C  0.72354409  0.04715392  0.99100662     0.18400
C1383       C  0.78039592  0.93221575  0.98027587     0.12300
C1384       C  0.84360272  0.96420243  0.00465239    -0.12000
H1385       H  0.81257861  0.04378824  0.01692341     0.12600
C1386       C  0.68159334  0.07489766  0.98579399    -0.22900
H1387       H  0.71308964  0.99459393  0.97383693     0.08200
C1388       C  0.75160984  0.89376701  0.98404146     0.04600
C1389       C  0.76483498  0.84906368  0.97937912    -0.20100
C1390       C  0.80637109  0.84155999  0.97119927    -0.12400
C1391       C  0.83367564  0.88040094  0.96658065     0.13300
C1392       C  0.81990464  0.92538580  0.97106352    -0.22800
C1393       C  0.70836938  0.89941230  0.99368664    -0.05900
H1394       H  0.74370869  0.81926686  0.98280477     0.14800
C1395       C  0.87892815  0.87587934  0.95789709    -0.16100
H1396       H  0.84174901  0.95512119  0.96811479     0.09100
H1397       H  0.65569311  0.07807944  0.99508506     0.07000
H1398       H  0.66349974  0.05805150  0.97611111     0.08200
H1399       H  0.69309719  0.11006678  0.98203098     0.07200
H1400       H  0.86976403  0.96241435  0.99539961     0.02100
H1401       H  0.83218892  0.92833876  0.00771566     0.02600
H1402       H  0.86135887  0.97976083  0.01461819     0.06100
H1403       H  0.69067683  0.86544993  0.99586679     0.05100
H1404       H  0.68274101  0.92247869  0.98790809    -0.00700
H1405       H  0.71815552  0.91489641  0.00472864     0.00800
H1406       H  0.87596367  0.89535413  0.94709724     0.04500
H1407       H  0.88825294  0.83937781  0.95525144     0.06400
H1408       H  0.90822070  0.89102684  0.96460008     0.07300
C1409       C  0.78712180  0.47510941  0.00214665    -0.22300
C1410       C  0.74728666  0.47727968  0.01136559     0.09600
C1411       C  0.72564310  0.52061980  0.01404404     0.10000
C1412       C  0.74272382  0.56048763  0.00659282    -0.17300
C1413       C  0.78011611  0.55771989  0.99623741    -0.27700
C1414       C  0.80356945  0.51450125  0.99438563     0.18400
C1415       C  0.72668130  0.43261776  0.01658034     0.12300
C1416       C  0.68365833  0.52434082  0.02428351    -0.12000
H1417       H  0.72503123  0.59364614  0.00828447     0.12600
C1418       C  0.84534300  0.50908355  0.98410873    -0.22900
H1419       H  0.80386408  0.44154778  0.00035615     0.08200
C1420       C  0.70244470  0.40355476  0.00631316     0.04600
C1421       C  0.69177856  0.35757308  0.01047824    -0.20100
C1422       C  0.70424939  0.34039426  0.02471919    -0.12400
C1423       C  0.72493302  0.37043833  0.03543668     0.13300
C1424       C  0.73627240  0.41644725  0.03121253    -0.22800
C1425       C  0.68897456  0.42070690  0.99080964    -0.05900
H1426       H  0.67546502  0.33431386  0.00238240     0.14800
C1427       C  0.73623483  0.35340710  0.05109268    -0.16100
H1428       H  0.75444089  0.43911838  0.03907474     0.09100
H1429       H  0.86142737  0.47391760  0.98511426     0.07000
H1430       H  0.87271154  0.53532960  0.98695879     0.08200
H1431       H  0.83403600  0.51333888  0.97223369     0.07200
H1432       H  0.69337979  0.51266697  0.03581661     0.02100
H1433       H  0.65465526  0.50206283  0.01996288     0.02600
H1434       H  0.67062538  0.56079242  0.02501081     0.06100
H1435       H  0.66927819  0.39379427  0.98436746     0.05100
H1436       H  0.72089743  0.42992598  0.98425946    -0.00700
H1437       H  0.66626940  0.45200087  0.99183770     0.00800
H1438       H  0.75258558  0.38122951  0.05806631     0.04500
H1439       H  0.76098005  0.32368327  0.05050190     0.06400
H1440       H  0.70345583  0.34169839  0.05675808     0.07300
C1441       C  0.70610501  0.68372580  0.86488365    -0.22300
C1442       C  0.74747448  0.70758289  0.86867940     0.09600
C1443       C  0.77621521  0.72601442  0.85712519     0.10000
C1444       C  0.76302449  0.71966243  0.84200702    -0.17300
C1445       C  0.72196553  0.69514019  0.83816681    -0.27700
C1446       C  0.69315540  0.67665519  0.84979741     0.18400
C1447       C  0.76266431  0.70782444  0.88467290     0.12300
C1448       C  0.82073422  0.75235274  0.86074750    -0.12000
H1449       H  0.78515216  0.73359664  0.83308383     0.12600
C1450       C  0.65033675  0.64677077  0.84689426    -0.22900
H1451       H  0.68480693  0.66849619  0.87380127     0.08200
C1452       C  0.73924980  0.73398681  0.89584456     0.04600
C1453       C  0.75356938  0.72985840  0.91097845    -0.20100
C1454       C  0.79127508  0.70090983  0.91506307    -0.12400
C1455       C  0.81515987  0.67538716  0.90376682     0.13300
C1456       C  0.80016146  0.67891161  0.88877729    -0.22800
C1457       C  0.69966850  0.76649248  0.89178307    -0.05900
H1458       H  0.73532471  0.74925422  0.91966464     0.14800
C1459       C  0.85537476  0.64260785  0.90698319    -0.16100
H1460       H  0.81744523  0.65825929  0.88020535     0.09100
H1461       H  0.61870490  0.66421609  0.85153220     0.07000
H1462       H  0.65470227  0.61253036  0.85261726     0.08200
H1463       H  0.64405946  0.63938827  0.83484390     0.07200
H1464       H  0.84608914  0.72919857  0.86660270     0.02100
H1465       H  0.81247933  0.78251278  0.86811474     0.02600
H1466       H  0.83809057  0.76580078  0.85039067     0.06100
H1467       H  0.68620551  0.78530763  0.90182529     0.05100
H1468       H  0.67004413  0.74654367  0.88678522    -0.00700
H1469       H  0.71228180  0.79279529  0.88350008     0.00800
H1470       H  0.84576855  0.60685707  0.90326010     0.04500
H1471       H  0.86502847  0.64057754  0.91901674     0.06400
H1472       H  0.88694687  0.65422548  0.90063675     0.07300
C1473       C  0.29972373  0.29257686  0.86256776    -0.22300
C1474       C  0.25805853  0.26989797  0.86682367     0.09600
C1475       C  0.22924784  0.24980113  0.85556321     0.10000
C1476       C  0.24281160  0.25295983  0.84032814    -0.17300
C1477       C  0.28469594  0.27543917  0.83605250    -0.27700
C1478       C  0.31335765  0.29596396  0.84738258     0.18400
C1479       C  0.24438290  0.26994146  0.88305260     0.12300
C1480       C  0.18460484  0.22435184  0.85962173    -0.12000
H1481       H  0.22065345  0.23765010  0.83168518     0.12600
C1482       C  0.35722184  0.32384841  0.84402120    -0.22900
H1483       H  0.32123965  0.30898097  0.87117599     0.08200
C1484       C  0.26992026  0.24481139  0.89406909     0.04600
C1485       C  0.25788231  0.24935479  0.90939121    -0.20100
C1486       C  0.22004331  0.27734488  0.91395762    -0.12400
C1487       C  0.19336157  0.30115468  0.90280764     0.13300
C1488       C  0.20634232  0.29750898  0.88758452    -0.22800
C1489       C  0.30936379  0.21268872  0.88964050    -0.05900
H1490       H  0.27819398  0.23096060  0.91789425     0.14800
C1491       C  0.15223504  0.33232532  0.90638681    -0.16100
H1492       H  0.18703819  0.31723130  0.87914552     0.09100
H1493       H  0.38811336  0.30637140  0.84918438     0.07000
H1494       H  0.35383588  0.35928225  0.84894614     0.08200
H1495       H  0.36413851  0.32861632  0.83186997     0.07200
H1496       H  0.15934686  0.24862895  0.86496894     0.02100
H1497       H  0.19268124  0.19549449  0.86758263     0.02600
H1498       H  0.16726570  0.20916520  0.84952187     0.06100
H1499       H  0.32436955  0.19430000  0.89957664     0.05100
H1500       H  0.33809786  0.23277891  0.88419889    -0.00700
H1501       H  0.29598570  0.18598951  0.88164013     0.00800
H1502       H  0.15955809  0.36819654  0.90223439     0.04500
H1503       H  0.14437814  0.33482954  0.91852851     0.06400
H1504       H  0.12028008  0.31886941  0.90062387     0.07300
C1505       C  0.49624867  0.42225864  0.80916826    -0.22300
C1506       C  0.48276940  0.46763410  0.80509468     0.09600
C1507       C  0.43568739  0.47598880  0.80072382     0.10000
C1508       C  0.40382276  0.43850502  0.79998379    -0.17300
C1509       C  0.41774241  0.39273804  0.80346370    -0.27700
C1510       C  0.46424070  0.38481309  0.80861062     0.18400
C1511       C  0.51919204  0.50509203  0.80454360     0.12300
C1512       C  0.41886211  0.52440598  0.79686336    -0.12000
H1513       H  0.36816187  0.44477984  0.79614698     0.12600
C1514       C  0.48006845  0.33743764  0.81398065    -0.22900
H1515       H  0.53231154  0.41595416  0.81252271     0.08200
C1516       C  0.54159518  0.52244796  0.81764948     0.04600
C1517       C  0.57651946  0.55719818  0.81625763    -0.20100
C1518       C  0.58875138  0.57559336  0.80209347    -0.12400
C1519       C  0.56640060  0.55791587  0.78898814     0.13300
C1520       C  0.53229888  0.52278608  0.79040826    -0.22800
C1521       C  0.52771345  0.50544615  0.83310933    -0.05900
H1522       H  0.59348884  0.57081552  0.82626301     0.14800
C1523       C  0.57828371  0.57415823  0.77322864    -0.16100
H1524       H  0.51592495  0.50878511  0.78033673     0.09100
H1525       H  0.45626828  0.32480977  0.82303861     0.07000
H1526       H  0.51634978  0.33852009  0.81861836     0.08200
H1527       H  0.47998325  0.31220778  0.80455833     0.07200
H1528       H  0.43760681  0.53790234  0.78679665     0.02100
H1529       H  0.42531644  0.54808343  0.80654865     0.02600
H1530       H  0.38062474  0.52488249  0.79429178     0.06100
H1531       H  0.54724099  0.52409910  0.84213471     0.05100
H1532       H  0.53537694  0.46768926  0.83426684    -0.00700
H1533       H  0.48954709  0.51134747  0.83488336     0.00800
H1534       H  0.58915641  0.54377177  0.76632172     0.04500
H1535       H  0.60741574  0.59978284  0.77279905     0.06400
H1536       H  0.54674348  0.59022645  0.76798291     0.07300
C1537       C  0.26364469  0.77376015  0.63979554    -0.22300
C1538       C  0.22792666  0.74910530  0.63230981     0.09600
C1539       C  0.18928816  0.73202281  0.64063606     0.10000
C1540       C  0.18644582  0.74110270  0.65617334    -0.17300
C1541       C  0.22121412  0.76719746  0.66368599    -0.27700
C1542       C  0.26086436  0.78299996  0.65539590     0.18400
C1543       C  0.23072461  0.74191811  0.61570229     0.12300
C1544       C  0.15070581  0.70455805  0.63305711    -0.12000
H1545       H  0.15616655  0.72871423  0.66241910     0.12600
C1546       C  0.30094767  0.80833210  0.66295378    -0.22900
H1547       H  0.29356554  0.78615659  0.63336394     0.08200
C1548       C  0.21000565  0.77363284  0.60551044     0.04600
C1549       C  0.20842527  0.76284536  0.59005394    -0.20100
C1550       C  0.22703566  0.72086952  0.58439668    -0.12400
C1551       C  0.24986485  0.69002132  0.59468194     0.13300
C1552       C  0.25125887  0.70108574  0.61015302    -0.22800
C1553       C  0.18885079  0.81859884  0.61101746    -0.05900
H1554       H  0.19130357  0.78701511  0.58241175     0.14800
C1555       C  0.27293187  0.64534746  0.58965296    -0.16100
H1556       H  0.26739444  0.67708412  0.61808357     0.09100
H1557       H  0.28882374  0.84241601  0.66736918     0.07000
H1558       H  0.33021160  0.81536249  0.65497362     0.08200
H1559       H  0.31499792  0.78679362  0.67235734     0.07200
H1560       H  0.16557988  0.67257643  0.62789611     0.02100
H1561       H  0.13395634  0.72604871  0.62412240     0.02600
H1562       H  0.12299354  0.69379039  0.64117134     0.06100
H1563       H  0.17397577  0.83954684  0.60160554     0.05100
H1564       H  0.21632434  0.83986304  0.61669050    -0.00700
H1565       H  0.16014970  0.81109790  0.61914521     0.00800
H1566       H  0.29127764  0.62749910  0.59910391     0.04500
H1567       H  0.29950802  0.65299037  0.58081446     0.06400
H1568       H  0.24607374  0.62070450  0.58526291     0.07300
C1569       C  0.99316411  0.76656167  0.75275035    -0.22300
C1570       C  0.99494677  0.72815278  0.76256536     0.09600
C1571       C  0.03779681  0.70416717  0.76446275     0.10000
C1572       C  0.07761404  0.71859530  0.75627706    -0.17300
C1573       C  0.07539930  0.75543621  0.74575291    -0.27700
C1574       C  0.03255863  0.78035582  0.74422450     0.18400
C1575       C  0.95028831  0.71128540  0.76947805     0.12300
C1576       C  0.04131839  0.66290367  0.77494749    -0.12000
H1577       H  0.11021461  0.69956682  0.75766037     0.12600
C1578       C  0.02776672  0.82154035  0.73371045    -0.22900
H1579       H  0.96009225  0.78480158  0.75134313     0.08200
C1580       C  0.92807886  0.73513747  0.78142511     0.04600
C1581       C  0.88252213  0.72162740  0.78592237    -0.20100
C1582       C  0.85888457  0.68453133  0.77883214    -0.12400
C1583       C  0.88239648  0.65904013  0.76744336     0.13300
C1584       C  0.92763575  0.67285727  0.76291258    -0.22800
C1585       C  0.95216605  0.77517913  0.78925753    -0.05900
H1586       H  0.86463590  0.74109154  0.79463608     0.14800
C1587       C  0.86015197  0.61861610  0.75922767    -0.16100
H1588       H  0.94468182  0.65456475  0.75374191     0.09100
H1589       H  0.99294808  0.83864010  0.73484025     0.07000
H1590       H  0.03108939  0.81005823  0.72181558     0.08200
H1591       H  0.05521273  0.84797173  0.73630595     0.07200
H1592       H  0.01733372  0.63470242  0.77111729     0.02100
H1593       H  0.03145717  0.67358084  0.78654882     0.02600
H1594       H  0.07754434  0.64853954  0.77529754     0.06100
H1595       H  0.93023973  0.78954965  0.79849862     0.05100
H1596       H  0.95932246  0.80370395  0.78108786    -0.00700
H1597       H  0.98590462  0.76304576  0.79419547     0.00800
H1598       H  0.85637282  0.62739633  0.74707975     0.04500
H1599       H  0.82514957  0.60914732  0.76366870     0.06400
H1600       H  0.88293048  0.58739082  0.76034022     0.07300
C1601       C  0.43373533  0.73293020  0.71817771    -0.22300
C1602       C  0.45714441  0.76025176  0.72894616     0.09600
C1603       C  0.43612800  0.80161844  0.73422996     0.10000
C1604       C  0.39036903  0.81259023  0.72961541    -0.17300
C1605       C  0.36533470  0.78335940  0.71977435    -0.27700
C1606       C  0.38783770  0.74394469  0.71350307     0.18400
C1607       C  0.49952864  0.74148279  0.73648511     0.12300
C1608       C  0.46108006  0.83278596  0.74535727    -0.12000
H1609       H  0.37299705  0.84287991  0.73435436     0.12600
C1610       C  0.36360855  0.71113898  0.70272508    -0.22900
H1611       H  0.45018288  0.70121939  0.71413524     0.08200
C1612       C  0.49500833  0.71388554  0.74961569     0.04600
C1613       C  0.53533365  0.70162033  0.75777359    -0.20100
C1614       C  0.58003218  0.71630206  0.75311217    -0.12400
C1615       C  0.58476960  0.74296829  0.73972240     0.13300
C1616       C  0.54427541  0.75497650  0.73149094    -0.22800
C1617       C  0.44739564  0.69884431  0.75532053    -0.05900
H1618       H  0.53188979  0.68170604  0.76812773     0.14800
C1619       C  0.63133127  0.76171476  0.73426211    -0.16100
H1620       H  0.54742683  0.77662943  0.72151845     0.09100
H1621       H  0.36221780  0.67562620  0.70774371     0.07000
H1622       H  0.38378333  0.70963867  0.69202249     0.08200
H1623       H  0.32719323  0.72178384  0.69997049     0.07200
H1624       H  0.49458046  0.84544698  0.74038406     0.02100
H1625       H  0.46880473  0.81318648  0.75588210     0.02600
H1626       H  0.43952429  0.86365319  0.74837040     0.06100
H1627       H  0.45018698  0.67747602  0.76574870     0.05100
H1628       H  0.42927604  0.67761982  0.74660019    -0.00700
H1629       H  0.42572557  0.72996271  0.75792218     0.00800
H1630       H  0.63848113  0.74824754  0.72276104     0.04500
H1631       H  0.66126149  0.75194566  0.74160057     0.06400
H1632       H  0.62991422  0.80041537  0.73380915     0.07300
C1633       C  0.24173603  0.45409800  0.73178310    -0.22300
C1634       C  0.24626574  0.49716963  0.73909379     0.09600
C1635       C  0.26388537  0.49872874  0.75393910     0.10000
C1636       C  0.27662411  0.45719530  0.76118212    -0.17300
C1637       C  0.27178690  0.41341511  0.75411055    -0.27700
C1638       C  0.25414649  0.41207704  0.73907549     0.18400
C1639       C  0.23254837  0.54085470  0.73124839     0.12300
C1640       C  0.26892652  0.54439996  0.76222858    -0.12000
H1641       H  0.28985618  0.45922034  0.77263460     0.12600
C1642       C  0.24814973  0.36704277  0.73052921    -0.22900
H1643       H  0.22822305  0.45343992  0.72036678     0.08200
C1644       C  0.26603074  0.56808368  0.72348270     0.04600
C1645       C  0.25452997  0.61382259  0.71916765    -0.20100
C1646       C  0.21025729  0.63302482  0.72242221    -0.12400
C1647       C  0.17558376  0.60438126  0.72935562     0.13300
C1648       C  0.18726286  0.55853177  0.73355462    -0.22800
C1649       C  0.31447824  0.54942740  0.72032512    -0.05900
H1650       H  0.28099777  0.63551296  0.71380742     0.14800
C1651       C  0.12717596  0.62122344  0.73362025    -0.16100
H1652       H  0.16175403  0.53741127  0.73957445     0.09100
H1653       H  0.23503138  0.37308428  0.71888371     0.07000
H1654       H  0.22220368  0.34429115  0.73632719     0.08200
H1655       H  0.28248052  0.34889697  0.72966400     0.07200
H1656       H  0.23406014  0.56142408  0.76323835     0.02100
H1657       H  0.29317173  0.56790322  0.75599531     0.02600
H1658       H  0.28326997  0.53943827  0.77378152     0.06100
H1659       H  0.33643564  0.57517477  0.71411994     0.05100
H1660       H  0.31167927  0.51737885  0.71336157    -0.00700
H1661       H  0.33256655  0.54085638  0.73107828     0.00800
H1662       H  0.10030248  0.59967283  0.72776609     0.04500
H1663       H  0.12044639  0.65809161  0.73078677     0.06400
H1664       H  0.12223269  0.61733879  0.74598469     0.07300
C1665       C  0.27168846  0.95130300  0.77037163    -0.22300
C1666       C  0.26206895  0.99483682  0.76383718     0.09600
C1667       C  0.23889508  0.99695345  0.74977014     0.10000
C1668       C  0.22807192  0.95546746  0.74216572    -0.17300
C1669       C  0.23944542  0.91179953  0.74832955    -0.27700
C1670       C  0.26068812  0.90956375  0.76279381     0.18400
C1671       C  0.28063785  0.03788463  0.77095727     0.12300
C1672       C  0.22656817  0.04308203  0.74260578    -0.12000
H1673       H  0.21182991  0.95711994  0.73112085     0.12600
C1674       C  0.27477237  0.86436200  0.77023692    -0.22900
H1675       H  0.28959581  0.94991314  0.78116284     0.08200
C1676       C  0.25430933  0.06376453  0.78149867     0.04600
C1677       C  0.27036924  0.10819208  0.78591761    -0.20100
C1678       C  0.31178550  0.12718092  0.77984210    -0.12400
C1679       C  0.33973291  0.09966732  0.77012171     0.13300
C1680       C  0.32374882  0.05539843  0.76581489    -0.22800
C1681       C  0.20836375  0.04533946  0.78747464    -0.05900
H1682       H  0.24882752  0.12948712  0.79328377     0.14800
C1683       C  0.38605865  0.11642077  0.76382965    -0.16100
H1684       H  0.34418752  0.03510535  0.75783762     0.09100
H1685       H  0.25606149  0.86076724  0.78116521     0.07000
H1686       H  0.31323144  0.86462226  0.77241366     0.08200
H1687       H  0.26679743  0.83318153  0.76335329     0.07200
H1688       H  0.25901260  0.06368594  0.74050715     0.02100
H1689       H  0.20308883  0.06301000  0.75021912     0.02600
H1690       H  0.20809736  0.03840530  0.73166191     0.06100
H1691       H  0.19200494  0.07000740  0.79555594     0.05100
H1692       H  0.21435978  0.01170000  0.79339524    -0.00700
H1693       H  0.18338577  0.03967449  0.77801705     0.00800
H1694       H  0.41401597  0.09092185  0.76671558     0.04500
H1695       H  0.39707952  0.15063134  0.76844401     0.06400
H1696       H  0.38355428  0.11940069  0.75136279     0.07300
C1697       C  0.79609200  0.27854803  0.64621617    -0.22300
C1698       C  0.79475223  0.24484191  0.63481398     0.09600
C1699       C  0.79362356  0.19717858  0.63872316     0.10000
C1700       C  0.79558761  0.18413177  0.65397679    -0.17300
C1701       C  0.79907326  0.21760579  0.66553153    -0.27700
C1702       C  0.79819602  0.26573900  0.66153587     0.18400
C1703       C  0.79848482  0.25990294  0.61883705     0.12300
C1704       C  0.79078305  0.16004164  0.62674798    -0.12000
H1705       H  0.79581451  0.14735388  0.65682104     0.12600
C1706       C  0.79923896  0.30404863  0.67318433    -0.22900
H1707       H  0.79671808  0.31511080  0.64305836     0.08200
C1708       C  0.75925125  0.27549319  0.61048802     0.04600
C1709       C  0.76501896  0.28783546  0.59522269    -0.20100
C1710       C  0.80909064  0.28463004  0.58817030    -0.12400
C1711       C  0.84866446  0.27054371  0.59676513     0.13300
C1712       C  0.84264775  0.25798152  0.61192336    -0.22800
C1713       C  0.71137759  0.27826214  0.61763762    -0.05900
H1714       H  0.73484659  0.29911544  0.58867338     0.14800
C1715       C  0.89804796  0.26979943  0.59057695    -0.16100
H1716       H  0.87285414  0.24674172  0.61847683     0.09100
H1717       H  0.79506105  0.33907820  0.66797020     0.07000
H1718       H  0.83343875  0.30405534  0.67922046     0.08200
H1719       H  0.77001811  0.29909935  0.68133368     0.07200
H1720       H  0.82201745  0.16214836  0.61928444     0.02100
H1721       H  0.75849273  0.16511644  0.61989107     0.02600
H1722       H  0.78954521  0.12445313  0.63171671     0.06100
H1723       H  0.68437870  0.29064241  0.60950703     0.05100
H1724       H  0.71235486  0.30291559  0.62727572    -0.00700
H1725       H  0.70065805  0.24322321  0.62177096     0.00800
H1726       H  0.92102583  0.29218456  0.59768359     0.04500
H1727       H  0.90074385  0.28310773  0.57888958     0.06400
H1728       H  0.91172486  0.23355686  0.59085923     0.07300
C1729       C  0.03091281  0.93590086  0.68829346    -0.22300
C1730       C  0.03310464  0.97418974  0.69810056     0.09600
C1731       C  0.07149828  0.97846942  0.70807637     0.10000
C1732       C  0.10633580  0.94382486  0.70826365    -0.17300
C1733       C  0.10377874  0.90442041  0.69878928    -0.27700
C1734       C  0.06568774  0.90095663  0.68847331     0.18400
C1735       C  0.99346032  0.00796840  0.69836445     0.12300
C1736       C  0.07569972  0.01960631  0.71857257    -0.12000
H1737       H  0.13510489  0.94708204  0.71617952     0.12600
C1738       C  0.06140609  0.86114489  0.67746987    -0.22900
H1739       H  0.00134321  0.93298371  0.68065637     0.08200
C1740       C  0.98831795  0.04327963  0.68736359     0.04600
C1741       C  0.95007081  0.07431271  0.68825467    -0.20100
C1742       C  0.91640801  0.07037468  0.69979190    -0.12400
C1743       C  0.92219028  0.03510776  0.71094139     0.13300
C1744       C  0.96052445  0.00448147  0.71002642    -0.22800
C1745       C  0.02357339  0.04851328  0.67482583    -0.05900
H1746       H  0.94624333  0.10151616  0.67984501     0.14800
C1747       C  0.88908282  0.03009771  0.72414032    -0.16100
H1748       H  0.96497586  0.97748719  0.71849587     0.09100
H1749       H  0.03119922  0.86590099  0.66967081     0.07000
H1750       H  0.05565448  0.82787608  0.68362746     0.08200
H1751       H  0.09381590  0.85884465  0.67053798     0.07200
H1752       H  0.04540046  0.02023494  0.72644457     0.02100
H1753       H  0.07623172  0.05247945  0.71192051     0.02600
H1754       H  0.10841245  0.01812455  0.72541383     0.06100
H1755       H  0.01485380  0.07825425  0.66728353     0.05100
H1756       H  0.02423229  0.01627106  0.66791360    -0.00700
H1757       H  0.05907472  0.05471186  0.67966159     0.00800
H1758       H  0.90138749  0.00341876  0.73233976     0.04500
H1759       H  0.85399396  0.01896207  0.72010027     0.06400
H1760       H  0.88595643  0.06372252  0.73023343     0.07300
C1761       C  0.74228321  0.96368249  0.74733498    -0.22300
C1762       C  0.74832284  0.96629544  0.76297527     0.09600
C1763       C  0.76604908  0.00744102  0.76950202     0.10000
C1764       C  0.77627382  0.04580044  0.76018120    -0.17300
C1765       C  0.76863619  0.04411731  0.74447189    -0.27700
C1766       C  0.75155430  0.00203562  0.73797075     0.18400
C1767       C  0.73512976  0.92501460  0.77206355     0.12300
C1768       C  0.77311417  0.01113622  0.78629420    -0.12000
H1769       H  0.78923079  0.07765303  0.76529237     0.12600
C1770       C  0.74255719  0.99657268  0.72127492    -0.22900
H1771       H  0.72916625  0.93149728  0.74248392     0.08200
C1772       C  0.68752301  0.91200101  0.77382983     0.04600
C1773       C  0.67668045  0.86746971  0.77942906    -0.20100
C1774       C  0.71245454  0.83629134  0.78342331    -0.12400
C1775       C  0.75982030  0.85113906  0.78310869     0.13300
C1776       C  0.77068888  0.89530354  0.77726247    -0.22800
C1777       C  0.64834273  0.94448270  0.76931506    -0.05900
H1778       H  0.64040341  0.85579760  0.77970579     0.14800
C1779       C  0.79959184  0.82040413  0.78828178    -0.16100
H1780       H  0.80722478  0.90566101  0.77605536     0.09100
H1781       H  0.73194107  0.96038607  0.71833886     0.07000
H1782       H  0.77479194  0.00481488  0.71477120     0.08200
H1783       H  0.71349791  0.01983880  0.71768374     0.07200
H1784       H  0.79914328  0.98482521  0.79009928     0.02100
H1785       H  0.73920876  0.00488055  0.79216475     0.02600
H1786       H  0.78630721  0.04616689  0.78960102     0.06100
H1787       H  0.61325730  0.92923154  0.77180520     0.05100
H1788       H  0.64994527  0.95193641  0.75704140    -0.00700
H1789       H  0.65169830  0.97771453  0.77565131     0.00800
H1790       H  0.82294788  0.81238538  0.77860643     0.04500
H1791       H  0.78702499  0.78715971  0.79328118     0.06400
H1792       H  0.82032254  0.83883048  0.79707719     0.07300
C1793       C  0.75285447  0.50426514  0.73545313    -0.22300
C1794       C  0.76098426  0.46396857  0.74404828     0.09600
C1795       C  0.75611112  0.46547723  0.75984135     0.10000
C1796       C  0.74365190  0.50743121  0.76674498    -0.17300
C1797       C  0.73615087  0.54842415  0.75831488    -0.27700
C1798       C  0.74063199  0.54670417  0.74238766     0.18400
C1799       C  0.77333436  0.41971644  0.73648572     0.12300
C1800       C  0.76398861  0.42266848  0.76943567    -0.12000
H1801       H  0.74066893  0.50823092  0.77893946     0.12600
C1802       C  0.73179031  0.58881061  0.73259519    -0.22900
H1803       H  0.75618523  0.50241782  0.72329702     0.08200
C1804       C  0.73804695  0.38872927  0.73156180     0.04600
C1805       C  0.75066910  0.34387893  0.72683593    -0.20100
C1806       C  0.79773433  0.32885255  0.72716011    -0.12400
C1807       C  0.83335155  0.36076705  0.73153553     0.13300
C1808       C  0.82059159  0.40600333  0.73604874    -0.22800
C1809       C  0.68690542  0.40231046  0.73195734    -0.05900
H1810       H  0.72327628  0.31968783  0.72342660     0.14800
C1811       C  0.88429824  0.34670063  0.73242848    -0.16100
H1812       H  0.84734369  0.43009779  0.74002020     0.09100
H1813       H  0.73411542  0.58017252  0.72041155     0.07000
H1814       H  0.75847434  0.61617087  0.73494324     0.08200
H1815       H  0.69601512  0.60265039  0.73479157     0.07200
H1816       H  0.80061954  0.41017313  0.76802468     0.02100
H1817       H  0.73920989  0.39462549  0.76600972     0.02600
H1818       H  0.75832352  0.42988049  0.78160565     0.06100
H1819       H  0.66377852  0.37373748  0.72784740     0.05100
H1820       H  0.68113930  0.43335494  0.72468539    -0.00700
H1821       H  0.67639734  0.41072473  0.74369734     0.00800
H1822       H  0.90684441  0.37558986  0.73664440     0.04500
H1823       H  0.89718785  0.33696508  0.72105543     0.06400
H1824       H  0.88835716  0.31668446  0.74026291     0.07300
C1825       C  0.08086496  0.27958095  0.76467529    -0.22300
C1826       C  0.06481185  0.23612939  0.76984970     0.09600
C1827       C  0.09498167  0.20772101  0.77856345     0.10000
C1828       C  0.14098953  0.22309107  0.78151693    -0.17300
C1829       C  0.15735347  0.26617843  0.77603723    -0.27700
C1830       C  0.12669662  0.29506062  0.76760845     0.18400
C1831       C  0.01886735  0.21913051  0.76414392     0.12300
C1832       C  0.07884765  0.16124837  0.78467039    -0.12000
H1833       H  0.16477719  0.20087871  0.78785209     0.12600
C1834       C  0.14153548  0.34088847  0.76066750    -0.22900
H1835       H  0.05806541  0.30072235  0.75761351     0.08200
C1836       C  0.97611236  0.24120526  0.76784142     0.04600
C1837       C  0.93500411  0.22908732  0.75994335    -0.20100
C1838       C  0.93592542  0.19604907  0.74823447    -0.12400
C1839       C  0.97844595  0.17183440  0.74525512     0.13300
C1840       C  0.01921565  0.18389892  0.75323492    -0.22800
C1841       C  0.97396275  0.27807600  0.77991261    -0.05900
H1842       H  0.90267253  0.24744147  0.76236049     0.14800
C1843       C  0.98185819  0.13345951  0.73365719    -0.16100
H1844       H  0.05222357  0.16740023  0.75039098     0.09100
H1845       H  0.11915376  0.36932095  0.76516399     0.07000
H1846       H  0.13683860  0.33923083  0.74823920     0.08200
H1847       H  0.17863043  0.35016250  0.76286843     0.07200
H1848       H  0.07018960  0.13712056  0.77530401     0.02100
H1849       H  0.04721974  0.16623219  0.79180670     0.02600
H1850       H  0.10646194  0.14440512  0.79167158     0.06100
H1851       H  0.93750605  0.29071911  0.78167078     0.05100
H1852       H  0.99592187  0.30855792  0.77672580    -0.00700
H1853       H  0.98694983  0.26343709  0.79074453     0.00800
H1854       H  0.97726629  0.14764942  0.72210301     0.04500
H1855       H  0.95486103  0.10646797  0.73598696     0.06400
H1856       H  0.01668941  0.11603638  0.73393472     0.07300
C1857       C  0.52515095  0.25139462  0.74954520    -0.22300
C1858       C  0.51863708  0.23342254  0.73501104     0.09600
C1859       C  0.47285427  0.22956762  0.72902548     0.10000
C1860       C  0.43419647  0.24216003  0.73801537    -0.17300
C1861       C  0.44060935  0.25780315  0.75289871    -0.27700
C1862       C  0.48673520  0.26372964  0.75856247     0.18400
C1863       C  0.56067578  0.21649755  0.72687240     0.12300
C1864       C  0.46493236  0.21158144  0.71328827    -0.12000
H1865       H  0.39887462  0.23782757  0.73366238     0.12600
C1866       C  0.49574481  0.28359204  0.77401831    -0.22900
H1867       H  0.56053113  0.25471147  0.75396687     0.08200
C1868       C  0.59192400  0.24767751  0.71967199     0.04600
C1869       C  0.63619371  0.23161443  0.71499734    -0.20100
C1870       C  0.64989739  0.18535495  0.71765593    -0.12400
C1871       C  0.61728165  0.15340120  0.72389432     0.13300
C1872       C  0.57293448  0.16938882  0.72838958    -0.22800
C1873       C  0.57934469  0.29828225  0.71760760    -0.05900
H1874       H  0.66147524  0.25604565  0.71032784     0.14800
C1875       C  0.62889774  0.10271296  0.72647684    -0.16100
H1876       H  0.54875261  0.14549417  0.73389080     0.09100
H1877       H  0.53389685  0.28838838  0.77623257     0.07000
H1878       H  0.48181770  0.25966093  0.78278793     0.08200
H1879       H  0.47856786  0.31821175  0.77499801     0.07200
H1880       H  0.47862714  0.17546924  0.71234074     0.02100
H1881       H  0.48353701  0.23433427  0.70507379     0.02600
H1882       H  0.42700839  0.21110233  0.71029080     0.06100
H1883       H  0.60754032  0.31783148  0.71164992     0.05100
H1884       H  0.57381394  0.31490012  0.72876274    -0.00700
H1885       H  0.54657668  0.30109455  0.71085223     0.00800
H1886       H  0.62778102  0.09478493  0.73873764     0.04500
H1887       H  0.66405861  0.09319235  0.72212829     0.06400
H1888       H  0.60264709  0.08050734  0.72058364     0.07300
loop_ 
_geom_bond_atom_site_label_1 
_geom_bond_atom_site_label_2 
_geom_bond_distance 
_geom_bond_site_symmetry_2 
_ccdc_geom_bond_type 
O1          Cr19   1.971       .  S
O1            C9   1.259       .  A
O2          Cr19   2.007       .  S
O2            C3   1.265       .  A
C3            O4   1.261       .  A
C3         C1765   1.487       .  S
O4          Cr20   1.976       .  S
O5          Cr20   2.020       .  S
O5            C6   1.267       .  A
C6            O7   1.252       .  A
C6         C1838   1.484       .  S
O7          Cr21   1.957       .  S
O8          Cr21   2.023       .  S
O8            C9   1.271       .  A
C9         C1742   1.490       .  S
O10         Cr19   2.016       .  S
O10          C18   1.267       .  A
O11         Cr19   1.987       .  S
O11          C12   1.264       .  A
C12          O13   1.268       .  A
C12        C1870   1.470       .  S
O13         Cr20   2.009       .  S
O14         Cr20   1.960       .  S
O14          C15   1.258       .  A
C15          O16   1.270       .  A
C15        C1806   1.484       .  S
O16         Cr21   2.025       .  S
O17         Cr21   1.971       .  S
O17          C18   1.255       .  A
C18        C1701   1.494       .  S
Cr19         O22   1.767       .  S
Cr20         O22   1.765       .  S
Cr21         O22   1.765       .  S
O23         Cr41   1.973       .  S
O23          C31   1.261       .  A
O24         Cr41   2.007       .  S
O24          C25   1.266       .  A
C25          O26   1.261       .  A
C25        C1669   1.477       .  S
O26         Cr42   1.984       .  S
O27         Cr42   2.013       .  S
O27          C28   1.265       .  A
C28          O29   1.258       .  A
C28        C1573   1.494       .  S
O29         Cr43   1.981       .  S
O30         Cr43   2.019       .  S
O30          C31   1.269       .  A
C31        C1733   1.496       .  S
O32         Cr41   2.013       .  S
O32          C40   1.265       .  A
O33         Cr41   1.986       .  S
O33          C34   1.262       .  A
C34          O35   1.266       .  A
C34        C1605   1.472       .  S
O35         Cr42   2.004       .  S
O36         Cr42   1.970       .  S
O36          C37   1.261       .  A
C37          O38   1.270       .  A
C37        C1646   1.482       .  S
O38         Cr43   2.022       .  S
O39         Cr43   1.982       .  S
O39          C40   1.260       .  A
C40        C1541   1.492       .  S
Cr41         O44   1.774       .  S
Cr42         O44   1.773       .  S
Cr43         O44   1.772       .  S
O45         Cr63   2.016       .  S
O45          C53   1.270       .  A
O46         Cr63   1.967       .  S
O46          C47   1.256       .  A
C47          O48   1.264       .  A
C47        C1637   1.498       .  S
O48         Cr64   2.018       .  S
O49         Cr64   1.980       .  S
O49          C50   1.262       .  A
C50          O51   1.267       .  A
C50        C1861   1.478       .  S
O51         Cr65   2.009       .  S
O52         Cr65   1.971       .  S
O52          C53   1.260       .  A
C53        C1509   1.485       .  S
O54         Cr63   1.979       .  S
O54          C62   1.257       .  A
O55         Cr63   2.019       .  S
O55          C56   1.269       .  A
C56          O57   1.258       .  A
C56        C1829   1.472       .  S
O57         Cr64   1.965       .  S
O58         Cr64   2.003       .  S
O58          C59   1.265       .  A
C59          O60   1.264       .  A
C59        C1678   1.474       .  S
O60         Cr65   1.995       .  S
O61         Cr65   2.013       .  S
O61          C62   1.264       .  A
C62        C1477   1.484       .  S
Cr63         O66   1.770       .  S
Cr64         O66   1.774       .  S
Cr65         O66   1.771       .  S
O67         Cr85   2.027       .  S
O67          C75   1.271       .  A
O68         Cr85   1.960       .  S
O68          C69   1.256       .  A
C69          O70   1.265       .  A
C69        C1797   1.486       .  S
O70         Cr86   2.014       .  S
O71         Cr86   1.979       .  S
O71          C72   1.259       .  A
C72          O73   1.264       .  A
C72        C1614   1.470       .  S
O73         Cr87   2.003       .  S
O74         Cr87   1.970       .  S
O74          C75   1.260       .  A
C75        C1518   1.480       .  S
O76         Cr85   1.974       .  S
O76          C84   1.258       .  A
O77         Cr85   2.033       .  S
O77          C78   1.270       .  A
C78          O79   1.257       .  A
C78        C1582   1.481       .  S
O79         Cr86   1.969       .  S
O80         Cr86   2.003       .  S
O80          C81   1.267       .  A
C81          O82   1.262       .  A
C81        C1774   1.465       .  S
O82         Cr87   1.980       .  S
O83         Cr87   2.010       .  S
O83          C84   1.264       .  A
C84        C1445   1.476       .  S
Cr85         O88   1.769       .  S
Cr86         O88   1.769       .  S
Cr87         O88   1.774       .  S
O89        Cr107   1.964       .  S
O89          C97   1.258       .  A
O90        Cr107   2.012       .  S
O90          C91   1.268       .  A
C91          O92   1.261       .  A
C91        C1381   1.493       .  S
O92        Cr108   1.981       .  S
O93        Cr108   2.001       .  S
O93          C94   1.260       .  A
C94          O95   1.259       .  A
C94        C1326   1.489       .  S
O95        Cr109   1.975       .  S
O96        Cr109   2.015       .  S
O96          C97   1.269       .  A
C97        C1294   1.485       .  S
O98        Cr107   2.012       .  S
O98         C106   1.265       .  A
O99        Cr107   1.979       .  S
O99         C100   1.261       .  A
C100        O101   1.264       .  A
C100       C1358   1.464       .  S
O101       Cr108   1.995       .  S
O102       Cr108   1.967       .  S
O102        C103   1.260       .  A
C103        O104   1.268       .  A
C103       C1422   1.468       .  S
O104       Cr109   2.017       .  S
O105       Cr109   1.977       .  S
O105        C106   1.258       .  A
C106       C1253   1.483       .  S
Cr107       O110   1.771       .  S
Cr108       O110   1.768       .  S
Cr109       O110   1.769       .  S
O111       Cr129   1.973       .  S
O111        C119   1.261       .  A
O112       Cr129   2.003       .  S
O112        C113   1.265       .  A
C113        O114   1.259       .  A
C113       C1230   1.469       .  S
O114       Cr130   1.977       .  S
O115       Cr130   2.017       .  S
O115        C116   1.268       .  A
C116        O117   1.257       .  A
C116       C1157   1.492       .  S
O117       Cr131   1.971       .  S
O118       Cr131   2.012       .  S
O118        C119   1.267       .  A
C119       C1285   1.488       .  S
O120       Cr129   2.011       .  S
O120        C128   1.265       .  A
O121       Cr129   1.983       .  S
O121        C122   1.262       .  A
C122        O123   1.266       .  A
C122       C1125   1.467       .  S
O123       Cr130   2.005       .  S
O124       Cr130   1.970       .  S
O124        C125   1.258       .  A
C125        O126   1.267       .  A
C125       C1189   1.474       .  S
O126       Cr131   2.021       .  S
O127       Cr131   1.982       .  S
O127        C128   1.261       .  A
C128       C1102   1.499       .  S
Cr129       O132   1.768       .  S
Cr130       O132   1.767       .  S
Cr131       O132   1.768       .  S
O133       Cr151   2.016       .  S
O133        C141   1.270       .  A
O134       Cr151   1.973       .  S
O134        C135   1.256       .  A
C135        O136   1.263       .  A
C135       C1413   1.485       .  S
O136       Cr152   2.007       .  S
O137       Cr152   1.978       .  S
O137        C138   1.261       .  A
C138        O139   1.268       .  A
C138       C1134   1.474       .  S
O139       Cr153   2.009       .  S
O140       Cr153   1.972       .  S
O140        C141   1.261       .  A
C141       C1070   1.486       .  S
O142       Cr151   1.975       .  S
O142        C150   1.256       .  A
O143       Cr151   2.020       .  S
O143        C144   1.269       .  A
C144        O145   1.258       .  A
C144       C1166   1.477       .  S
O145       Cr152   1.963       .  S
O146       Cr152   1.995       .  S
O146        C147   1.264       .  A
C147        O148   1.263       .  A
C147       C1390   1.476       .  S
O148       Cr153   1.993       .  S
O149       Cr153   2.005       .  S
O149        C150   1.262       .  A
C150       C1454   1.473       .  S
Cr151       O154   1.768       .  S
Cr152       O154   1.771       .  S
Cr153       O154   1.773       .  S
O155       Cr173   2.023       .  S
O155        C163   1.271       .  A
O156       Cr173   1.966       .  S
O156        C157   1.254       .  A
C157        O158   1.267       .  A
C157       C1198   1.499       .  S
O158       Cr174   2.023       .  S
O159       Cr174   1.978       .  S
O159        C160   1.259       .  A
C160        O161   1.264       .  A
C160       C1349   1.467       .  S
O161       Cr175   2.002       .  S
O162       Cr175   1.957       .  S
O162        C163   1.258       .  A
C163       C1061   1.472       .  S
O164       Cr173   1.980       .  S
O164        C172   1.256       .  A
O165       Cr173   2.020       .  S
O165        C166   1.270       .  A
C166        O167   1.256       .  A
C166       C1317   1.476       .  S
O167       Cr174   1.956       .  S
O168       Cr174   2.011       .  S
O168        C169   1.269       .  A
C169        O170   1.263       .  A
C169       C1221   1.470       .  S
O170       Cr175   1.981       .  S
O171       Cr175   2.013       .  S
O171        C172   1.263       .  A
C172       C1486   1.483       .  S
Cr173       O176   1.769       .  S
Cr174       O176   1.770       .  S
Cr175       O176   1.771       .  S
O177       Cr195   1.964       .  S
O177        C185   1.259       .  A
O178       Cr195   2.008       .  S
O178        C179   1.264       .  A
C179        O180   1.262       .  A
C179       C1029   1.494       .  S
O180       Cr196   1.989       .  S
O181       Cr196   2.020       .  S
O181        C182   1.266       .  A
C182        O183   1.253       .  A
C182        C942   1.497       .  S
O183       Cr197   1.962       .  S
O184       Cr197   2.023       .  S
O184        C185   1.271       .  A
C185        C901   1.485       .  S
O186       Cr195   2.014       .  S
O186        C194   1.264       .  A
O187       Cr195   1.980       .  S
O187        C188   1.262       .  A
C188        O189   1.268       .  A
C188        C965   1.466       .  S
O189       Cr196   2.007       .  S
O190       Cr196   1.963       .  S
O190        C191   1.257       .  A
C191        O192   1.270       .  A
C191        C997   1.473       .  S
O192       Cr197   2.027       .  S
O193       Cr197   1.973       .  S
O193        C194   1.257       .  A
C194       C1710   1.478       .  S
Cr195       O198   1.774       .  S
Cr196       O198   1.771       .  S
Cr197       O198   1.771       .  S
O199       Cr217   2.014       .  S
O199        C207   1.269       .  A
O200       Cr217   1.980       .  S
O200        C201   1.259       .  A
C201        O202   1.263       .  A
C201       C1006   1.487       .  S
O202       Cr218   2.004       .  S
O203       Cr218   1.987       .  S
O203        C204   1.262       .  A
C204        O205   1.262       .  A
C204        C837   1.493       .  S
O205       Cr219   1.997       .  S
O206       Cr219   1.976       .  S
O206        C207   1.261       .  A
C207        C805   1.492       .  S
O208       Cr217   1.980       .  S
O208        C216   1.257       .  A
O209       Cr217   2.012       .  S
O209        C210   1.266       .  A
C210        O211   1.257       .  A
C210        C869   1.463       .  S
O211       Cr218   1.956       .  S
O212       Cr218   2.008       .  S
O212        C213   1.268       .  A
C213        O214   1.265       .  A
C213       C1038   1.483       .  S
O214       Cr219   1.996       .  S
O215       Cr219   2.005       .  S
O215        C216   1.263       .  A
C216        C773   1.479       .  S
Cr217       O220   1.776       .  S
Cr218       O220   1.769       .  S
Cr219       O220   1.775       .  S
O221       Cr239   2.021       .  S
O221        C229   1.271       .  A
O222       Cr239   1.979       .  S
O222        C223   1.258       .  A
C223        O224   1.261       .  A
C223        C750   1.480       .  S
O224       Cr240   2.006       .  S
O225       Cr240   1.979       .  S
O225        C226   1.262       .  A
C226        O227   1.268       .  A
C226        C974   1.483       .  S
O227       Cr241   2.007       .  S
O228       Cr241   1.970       .  S
O228        C229   1.260       .  A
C229        C814   1.492       .  S
O230       Cr239   1.980       .  S
O230        C238   1.258       .  A
O231       Cr239   2.021       .  S
O231        C232   1.270       .  A
C232        O233   1.262       .  A
C232        C933   1.491       .  S
O233       Cr240   1.968       .  S
O234       Cr240   1.994       .  S
O234        C235   1.262       .  A
C235        O236   1.262       .  A
C235        C709   1.467       .  S
O236       Cr241   1.992       .  S
O237       Cr241   2.013       .  S
O237        C238   1.265       .  A
C238        C677   1.499       .  S
Cr239       O242   1.770       .  S
Cr240       O242   1.772       .  S
Cr241       O242   1.772       .  S
O243       Cr261   1.967       .  S
O243        C251   1.263       .  A
O244       Cr261   2.009       .  S
O244        C245   1.265       .  A
C245        O246   1.259       .  A
C245        C718   1.474       .  S
O246       Cr262   1.979       .  S
O247       Cr262   2.009       .  S
O247        C248   1.264       .  A
C248        O249   1.259       .  A
C248        C878   1.487       .  S
O249       Cr263   1.976       .  S
O250       Cr263   2.023       .  S
O250        C251   1.272       .  A
C251        C910   1.494       .  S
O252       Cr261   2.006       .  S
O252        C260   1.261       .  A
O253       Cr261   1.984       .  S
O253        C254   1.262       .  A
C254        O255   1.267       .  A
C254        C846   1.471       .  S
O255       Cr262   2.000       .  S
O256       Cr262   1.959       .  S
O256        C257   1.255       .  A
C257        O258   1.271       .  A
C257        C741   1.480       .  S
O258       Cr263   2.031       .  S
O259       Cr263   1.989       .  S
O259        C260   1.261       .  A
C260       C1550   1.500       .  S
Cr261       O264   1.771       .  S
Cr262       O264   1.768       .  S
Cr263       O264   1.768       .  S
O265       Cr283   1.970       .  S
O265        C273   1.264       .  A
O266       Cr283   1.999       .  S
O266        C267   1.263       .  A
C267        O268   1.260       .  A
C267        C622   1.476       .  S
O268       Cr284   1.988       .  S
O269       Cr284   2.002       .  S
O269        C270   1.263       .  A
C270        O271   1.256       .  A
C270        C549   1.492       .  S
O271       Cr285   1.973       .  S
O272       Cr285   2.021       .  S
O272        C273   1.271       .  A
C273        C517   1.497       .  S
O274       Cr283   1.996       .  S
O274        C282   1.260       .  A
O275       Cr283   1.994       .  S
O275        C276   1.266       .  A
C276        O277   1.266       .  A
C276        C581   1.477       .  S
O277       Cr284   2.001       .  S
O278       Cr284   1.965       .  S
O278        C279   1.258       .  A
C279        O280   1.272       .  A
C279        C654   1.485       .  S
O280       Cr285   2.027       .  S
O281       Cr285   1.988       .  S
O281        C282   1.259       .  A
C282        C782   1.479       .  S
Cr283       O286   1.770       .  S
Cr284       O286   1.770       .  S
Cr285       O286   1.773       .  S
O287       Cr305   2.017       .  S
O287        C295   1.270       .  A
O288       Cr305   1.978       .  S
O288        C289   1.258       .  A
C289        O290   1.261       .  A
C289        C453   1.484       .  S
O290       Cr306   1.999       .  S
O291       Cr306   1.982       .  S
O291        C292   1.261       .  A
C292        O293   1.267       .  A
C292        C590   1.474       .  S
O293       Cr307   2.013       .  S
O294       Cr307   1.971       .  S
O294        C295   1.261       .  A
C295        C430   1.488       .  S
O296       Cr305   1.987       .  S
O296        C304   1.259       .  A
O297       Cr305   2.017       .  S
O297        C298   1.269       .  A
C298        O299   1.260       .  A
C298        C558   1.475       .  S
O299       Cr306   1.966       .  S
O300       Cr306   1.996       .  S
O300        C301   1.262       .  A
C301        O302   1.262       .  A
C301        C494   1.472       .  S
O302       Cr307   1.996       .  S
O303       Cr307   2.004       .  S
O303        C304   1.265       .  A
C304       C1093   1.498       .  S
Cr305       O308   1.775       .  S
Cr306       O308   1.775       .  S
Cr307       O308   1.770       .  S
O309       Cr327   2.018       .  S
O309        C317   1.267       .  A
O310       Cr327   1.972       .  S
O310        C311   1.259       .  A
C311        O312   1.265       .  A
C311        C485   1.498       .  S
O312       Cr328   2.013       .  S
O313       Cr328   1.986       .  S
O313        C314   1.262       .  A
C314        O315   1.268       .  A
C314        C366   1.482       .  S
O315       Cr329   2.015       .  S
O316       Cr329   1.961       .  S
O316        C317   1.258       .  A
C317        C526   1.467       .  S
O318       Cr327   1.979       .  S
O318        C326   1.260       .  A
O319       Cr327   2.020       .  S
O319        C320   1.268       .  A
C320        O321   1.259       .  A
C320        C398   1.482       .  S
O321       Cr328   1.974       .  S
O322       Cr328   2.000       .  S
O322        C323   1.267       .  A
C323        O324   1.262       .  A
C323        C462   1.478       .  S
O324       Cr329   1.984       .  S
O325       Cr329   2.015       .  S
O325        C326   1.265       .  A
C326        C686   1.495       .  S
Cr327       O330   1.773       .  S
Cr328       O330   1.768       .  S
Cr329       O330   1.771       .  S
O331       Cr349   1.975       .  S
O331        C339   1.262       .  A
O332       Cr349   2.008       .  S
O332        C333   1.265       .  A
C333        O334   1.262       .  A
C333        C645   1.495       .  S
O334       Cr350   1.989       .  S
O335       Cr350   2.018       .  S
O335        C336   1.265       .  A
C336        O337   1.258       .  A
C336        C389   1.500       .  S
O337       Cr351   1.971       .  S
O338       Cr351   2.023       .  S
O338        C339   1.271       .  A
C339        C421   1.485       .  S
O340       Cr349   2.015       .  S
O340        C348   1.265       .  A
O341       Cr349   1.992       .  S
O341        C342   1.264       .  A
C342        O343   1.268       .  A
C342        C357   1.476       .  S
O343       Cr350   2.012       .  S
O344       Cr350   1.965       .  S
O344        C345   1.259       .  A
C345        O346   1.269       .  A
C345        C613   1.477       .  S
O346       Cr351   2.019       .  S
O347       Cr351   1.978       .  S
O347        C348   1.256       .  A
C348       C1262   1.499       .  S
Cr349       O352   1.770       .  S
Cr350       O352   1.770       .  S
Cr351       O352   1.770       .  S
C353        C354   1.402       .  A
C353        C358   1.403       .  A
C353        H363   1.086       .  S
C354        C359   1.487   1_655  S
C354        C355   1.412       .  A
C355        C356   1.408       .  A
C355        C360   1.505       .  S
C356        C357   1.404       .  A
C356        H361   1.084       .  S
C357        C358   1.414       .  A
C358        C362   1.507       .  S
C359        C364   1.411       .  A
C359        C368   1.402       .  A
C360        H376   1.110       .  S
C360        H377   1.110       .  S
C360        H378   1.110       .  S
C362        H373   1.111       .  S
C362        H374   1.110       .  S
C362        H375   1.108       .  S
C364        C365   1.409       .  A
C364        C369   1.505       .  S
C365        C366   1.406       .  A
C365        H370   1.085       .  S
C366        C367   1.416       .  A
C367        C368   1.403       .  A
C367        C371   1.506       .  S
C368        H372   1.086   1_455  S
C369        H379   1.111       .  S
C369        H380   1.110       .  S
C369        H381   1.110       .  S
C371        H382   1.110       .  S
C371        H383   1.104       .  S
C371        H384   1.111       .  S
C385        C386   1.402       .  A
C385        C390   1.411       .  A
C385        H395   1.082       .  S
C386        C391   1.487       .  S
C386        C387   1.409       .  A
C387        C388   1.402       .  A
C387        C392   1.509       .  S
C388        C389   1.410       .  A
C388        H393   1.082       .  S
C389        C390   1.424       .  A
C390        C394   1.507       .  S
C391        C396   1.413       .  A
C391        C400   1.401       .  A
C392        H408   1.110       .  S
C392        H409   1.111       .  S
C392        H410   1.110       .  S
C394        H405   1.110       .  S
C394        H406   1.111       .  S
C394        H407   1.110       .  S
C396        C397   1.406       .  A
C396        C401   1.506       .  S
C397        C398   1.403       .  A
C397        H402   1.085       .  S
C398        C399   1.416       .  A
C399        C400   1.405       .  A
C399        C403   1.506       .  S
C400        H404   1.088       .  S
C401        H411   1.111       .  S
C401        H412   1.110       .  S
C401        H413   1.110       .  S
C403        H414   1.110       .  S
C403        H415   1.109       .  S
C403        H416   1.111       .  S
C417        C418   1.400       .  A
C417        C422   1.403       .  A
C417        H427   1.084       .  S
C418        C423   1.486       .  S
C418        C419   1.412       .  A
C419        C420   1.410       .  A
C419        C424   1.506       .  S
C420        C421   1.406       .  A
C420        H425   1.084       .  S
C421        C422   1.418       .  A
C422        C426   1.509       .  S
C423        C428   1.411       .  A
C423        C432   1.401       .  A
C424        H440   1.110       .  S
C424        H441   1.109       .  S
C424        H442   1.111       .  S
C426        H437   1.111       .  S
C426        H438   1.111       .  S
C426        H439   1.108       .  S
C428        C429   1.407       .  A
C428        C433   1.507       .  S
C429        C430   1.406       .  A
C429        H434   1.079       .  S
C430        C431   1.418       .  A
C431        C432   1.406       .  A
C431        C435   1.508       .  S
C432        H436   1.083       .  S
C433        H443   1.111       .  S
C433        H444   1.110       .  S
C433        H445   1.109       .  S
C435        H446   1.109       .  S
C435        H447   1.111       .  S
C435        H448   1.111       .  S
C449        C450   1.400       .  A
C449        C454   1.402       .  A
C449        H459   1.082       .  S
C450        C455   1.476       .  S
C450        C451   1.406       .  A
C451        C452   1.403       .  A
C451        C456   1.506       .  S
C452        C453   1.409       .  A
C452        H457   1.082       .  S
C453        C454   1.417       .  A
C454        C458   1.506       .  S
C455        C460   1.409       .  A
C455        C464   1.402       .  A
C456        H472   1.110       .  S
C456        H473   1.110       .  S
C456        H474   1.111       .  S
C458        H469   1.111       .  S
C458        H470   1.111       .  S
C458        H471   1.107       .  S
C460        C461   1.396       .  A
C460        C465   1.508       .  S
C461        C462   1.403       .  A
C461        H466   1.087       .  S
C462        C463   1.416       .  A
C463        C464   1.407       .  A
C463        C467   1.505       .  S
C464        H468   1.085       .  S
C465        H475   1.111       .  S
C465        H476   1.110       .  S
C465        H477   1.110       .  S
C467        H478   1.108       .  S
C467        H479   1.109       .  S
C467        H480   1.111       .  S
C481        C482   1.399   1_545  A
C481        C486   1.408       .  A
C481        H491   1.084       .  S
C482        C487   1.482       .  S
C482        C483   1.409       .  A
C483        C484   1.402   1_565  A
C483        C488   1.508       .  S
C484        C485   1.410       .  A
C484        H489   1.084       .  S
C485        C486   1.424       .  A
C486        C490   1.507       .  S
C487        C492   1.412       .  A
C487        C496   1.400       .  A
C488        H504   1.110       .  S
C488        H505   1.110       .  S
C488        H506   1.111       .  S
C490        H501   1.111       .  S
C490        H502   1.110       .  S
C490        H503   1.110       .  S
C492        C493   1.408       .  A
C492        C497   1.506       .  S
C493        C494   1.404       .  A
C493        H498   1.083       .  S
C494        C495   1.414       .  A
C495        C496   1.400       .  A
C495        C499   1.508       .  S
C496        H500   1.085       .  S
C497        H507   1.111       .  S
C497        H508   1.110       .  S
C497        H509   1.110       .  S
C499        H510   1.110       .  S
C499        H511   1.108       .  S
C499        H512   1.110       .  S
C513        C514   1.400       .  A
C513        C518   1.408   1_455  A
C513        H523   1.081       .  S
C514        C519   1.481   1_565  S
C514        C515   1.408   1_465  A
C515        C516   1.400   1_545  A
C515        C520   1.509       .  S
C516        C517   1.410       .  A
C516        H521   1.082       .  S
C517        C518   1.424       .  A
C518        C522   1.507       .  S
C519        C524   1.412       .  A
C519        C528   1.400       .  A
C520        H536   1.109       .  S
C520        H537   1.111       .  S
C520        H538   1.111       .  S
C522        H533   1.110       .  S
C522        H534   1.111   1_655  S
C522        H535   1.106       .  S
C524        C525   1.406       .  A
C524        C529   1.505       .  S
C525        C526   1.402       .  A
C525        H530   1.085       .  S
C526        C527   1.415       .  A
C527        C528   1.397       .  A
C527        C531   1.510       .  S
C528        H532   1.088       .  S
C529        H539   1.111       .  S
C529        H540   1.110       .  S
C529        H541   1.110       .  S
C531        H542   1.111       .  S
C531        H543   1.107       .  S
C531        H544   1.110       .  S
C545        C546   1.399       .  A
C545        C550   1.402       .  A
C545        H555   1.084       .  S
C546        C551   1.479       .  S
C546        C547   1.407       .  A
C547        C548   1.404   1_455  A
C547        C552   1.506   1_455  S
C548        C549   1.410       .  A
C548        H553   1.083       .  S
C549        C550   1.422   1_655  A
C550        C554   1.507       .  S
C551        C556   1.409       .  A
C551        C560   1.400       .  A
C552        H568   1.110   1_655  S
C552        H569   1.110   1_655  S
C552        H570   1.111       .  S
C554        H565   1.111       .  S
C554        H566   1.108       .  S
C554        H567   1.111   1_455  S
C556        C557   1.403       .  A
C556        C561   1.506       .  S
C557        C558   1.405       .  A
C557        H562   1.085       .  S
C558        C559   1.419       .  A
C559        C560   1.401       .  A
C559        C563   1.509       .  S
C560        H564   1.085       .  S
C561        H571   1.111       .  S
C561        H572   1.109       .  S
C561        H573   1.110       .  S
C563        H574   1.111       .  S
C563        H575   1.103       .  S
C563        H576   1.110       .  S
C577        C578   1.400       .  A
C577        C582   1.400       .  A
C577        H587   1.087       .  S
C578        C583   1.485       .  S
C578        C579   1.412       .  A
C579        C580   1.409       .  A
C579        C584   1.504       .  S
C580        C581   1.405       .  A
C580        H585   1.085       .  S
C581        C582   1.417       .  A
C582        C586   1.509       .  S
C583        C588   1.411       .  A
C583        C592   1.404       .  A
C584        H600   1.110       .  S
C584        H601   1.110       .  S
C584        H602   1.111       .  S
C586        H597   1.111       .  S
C586        H598   1.110       .  S
C586        H599   1.108       .  S
C588        C589   1.405       .  A
C588        C593   1.506       .  S
C589        C590   1.403       .  A
C589        H594   1.084       .  S
C590        C591   1.414       .  A
C591        C592   1.406       .  A
C591        C595   1.507       .  S
C592        H596   1.084       .  S
C593        H603   1.111       .  S
C593        H604   1.110       .  S
C593        H605   1.110       .  S
C595        H606   1.110       .  S
C595        H607   1.108       .  S
C595        H608   1.110       .  S
C609        C610   1.402       .  A
C609        C614   1.404       .  A
C609        H619   1.084       .  S
C610        C615   1.481       .  S
C610        C611   1.407       .  A
C611        C612   1.403       .  A
C611        C616   1.505       .  S
C612        C613   1.407       .  A
C612        H617   1.085       .  S
C613        C614   1.418       .  A
C614        C618   1.509       .  S
C615        C620   1.410       .  A
C615        C624   1.402   1_545  A
C616        H632   1.110       .  S
C616        H633   1.110       .  S
C616        H634   1.109       .  S
C618        H629   1.111       .  S
C618        H630   1.110       .  S
C618        H631   1.105       .  S
C620        C621   1.400   1_545  A
C620        C625   1.508       .  S
C621        C622   1.404       .  A
C621        H626   1.085       .  S
C622        C623   1.419       .  A
C623        C624   1.407       .  A
C623        C627   1.508       .  S
C624        H628   1.083       .  S
C625        H635   1.111       .  S
C625        H636   1.110       .  S
C625        H637   1.110       .  S
C627        H638   1.110       .  S
C627        H639   1.105       .  S
C627        H640   1.110       .  S
C641        C642   1.399       .  A
C641        C646   1.403       .  A
C641        H651   1.084       .  S
C642        C647   1.487       .  S
C642        C643   1.410       .  A
C643        C644   1.409       .  A
C643        C648   1.505       .  S
C644        C645   1.410       .  A
C644        H649   1.083       .  S
C645        C646   1.423       .  A
C646        C650   1.509       .  S
C647        C652   1.413       .  A
C647        C656   1.401       .  A
C648        H664   1.110       .  S
C648        H665   1.110       .  S
C648        H666   1.111       .  S
C650        H661   1.111       .  S
C650        H662   1.110       .  S
C650        H663   1.110       .  S
C652        C653   1.406       .  A
C652        C657   1.507       .  S
C653        C654   1.404       .  A
C653        H658   1.085       .  S
C654        C655   1.419       .  A
C655        C656   1.406       .  A
C655        C659   1.509       .  S
C656        H660   1.085       .  S
C657        H667   1.111       .  S
C657        H668   1.109       .  S
C657        H669   1.110       .  S
C659        H670   1.111       .  S
C659        H671   1.108       .  S
C659        H672   1.110       .  S
C673        C674   1.400       .  A
C673        C678   1.407       .  A
C673        H683   1.082       .  S
C674        C679   1.488       .  S
C674        C675   1.410       .  A
C675        C676   1.408       .  A
C675        C680   1.507       .  S
C676        C677   1.411       .  A
C676        H681   1.083       .  S
C677        C678   1.423       .  A
C678        C682   1.508       .  S
C679        C684   1.410       .  A
C679        C688   1.402       .  A
C680        H696   1.110       .  S
C680        H697   1.109       .  S
C680        H698   1.111       .  S
C682        H693   1.111       .  S
C682        H694   1.110       .  S
C682        H695   1.110       .  S
C684        C685   1.403       .  A
C684        C689   1.508       .  S
C685        C686   1.407       .  A
C685        H690   1.084       .  S
C686        C687   1.422       .  A
C687        C688   1.411       .  A
C687        C691   1.507       .  S
C688        H692   1.084       .  S
C689        H699   1.111       .  S
C689        H700   1.110       .  S
C689        H701   1.109       .  S
C691        H702   1.111       .  S
C691        H703   1.109       .  S
C691        H704   1.110       .  S
C705        C706   1.400       .  A
C705        C710   1.399       .  A
C705        H715   1.085       .  S
C706        C711   1.479       .  S
C706        C707   1.411       .  A
C707        C708   1.405       .  A
C707        C712   1.506       .  S
C708        C709   1.402       .  A
C708        H713   1.086       .  S
C709        C710   1.414       .  A
C710        C714   1.508       .  S
C711        C716   1.412       .  A
C711        C720   1.400       .  A
C712        H728   1.110       .  S
C712        H729   1.109       .  S
C712        H730   1.111       .  S
C714        H725   1.110       .  S
C714        H726   1.110       .  S
C714        H727   1.108       .  S
C716        C717   1.402       .  A
C716        C721   1.508       .  S
C717        C718   1.402       .  A
C717        H722   1.085       .  S
C718        C719   1.418       .  A
C719        C720   1.404       .  A
C719        C723   1.508       .  S
C720        H724   1.086       .  S
C721        H731   1.111       .  S
C721        H732   1.110       .  S
C721        H733   1.109       .  S
C723        H734   1.111       .  S
C723        H735   1.106       .  S
C723        H736   1.110       .  S
C737        C738   1.397       .  A
C737        C742   1.395       .  A
C737        H747   1.086       .  S
C738        C743   1.484       .  S
C738        C739   1.412       .  A
C739        C740   1.411       .  A
C739        C744   1.505       .  S
C740        C741   1.406       .  A
C740        H745   1.084       .  S
C741        C742   1.420       .  A
C742        C746   1.509       .  S
C743        C748   1.413   1_565  A
C743        C752   1.401   1_565  A
C744        H760   1.109       .  S
C744        H761   1.110       .  S
C744        H762   1.111       .  S
C746        H757   1.110       .  S
C746        H758   1.111       .  S
C746        H759   1.103       .  S
C748        C749   1.403       .  A
C748        C753   1.508   1_545  S
C749        C750   1.403       .  A
C749        H754   1.084       .  S
C750        C751   1.420       .  A
C751        C752   1.405       .  A
C751        C755   1.507       .  S
C752        H756   1.084       .  S
C753        H763   1.111       .  S
C753        H764   1.109       .  S
C753        H765   1.110       .  S
C755        H766   1.110       .  S
C755        H767   1.104       .  S
C755        H768   1.110       .  S
C769        C770   1.400       .  A
C769        C774   1.403       .  A
C769        H779   1.084       .  S
C770        C775   1.483       .  S
C770        C771   1.411       .  A
C771        C772   1.406       .  A
C771        C776   1.506       .  S
C772        C773   1.406       .  A
C772        H777   1.083       .  S
C773        C774   1.419       .  A
C774        C778   1.510       .  S
C775        C780   1.411       .  A
C775        C784   1.399       .  A
C776        H792   1.110       .  S
C776        H793   1.111       .  S
C776        H794   1.111       .  S
C778        H789   1.110       .  S
C778        H790   1.111       .  S
C778        H791   1.105       .  S
C780        C781   1.407       .  A
C780        C785   1.505       .  S
C781        C782   1.404       .  A
C781        H786   1.084       .  S
C782        C783   1.421       .  A
C783        C784   1.401       .  A
C783        C787   1.509       .  S
C784        H788   1.085       .  S
C785        H795   1.111       .  S
C785        H796   1.110       .  S
C785        H797   1.110       .  S
C787        H798   1.110       .  S
C787        H799   1.103       .  S
C787        H800   1.111       .  S
C801        C802   1.400       .  A
C801        C806   1.405       .  A
C801        H811   1.083       .  S
C802        C807   1.485   1_565  S
C802        C803   1.410       .  A
C803        C804   1.406       .  A
C803        C808   1.507   1_565  S
C804        C805   1.408       .  A
C804        H809   1.084       .  S
C805        C806   1.422       .  A
C806        C810   1.509       .  S
C807        C812   1.411       .  A
C807        C816   1.398       .  A
C808        H824   1.110       .  S
C808        H825   1.109       .  S
C808        H826   1.111       .  S
C810        H821   1.109       .  S
C810        H822   1.111       .  S
C810        H823   1.111       .  S
C812        C813   1.409       .  A
C812        C817   1.506   1_545  S
C813        C814   1.408       .  A
C813        H818   1.085       .  S
C814        C815   1.422       .  A
C815        C816   1.403       .  A
C815        C819   1.509       .  S
C816        H820   1.085       .  S
C817        H827   1.111       .  S
C817        H828   1.110       .  S
C817        H829   1.109       .  S
C819        H830   1.111       .  S
C819        H831   1.111       .  S
C819        H832   1.108       .  S
C833        C834   1.396       .  A
C833        C838   1.399       .  A
C833        H843   1.085       .  S
C834        C839   1.477       .  S
C834        C835   1.406       .  A
C835        C836   1.407       .  A
C835        C840   1.505       .  S
C836        C837   1.411       .  A
C836        H841   1.084       .  S
C837        C838   1.426       .  A
C838        C842   1.511       .  S
C839        C844   1.409       .  A
C839        C848   1.404       .  A
C840        H856   1.110       .  S
C840        H857   1.109       .  S
C840        H858   1.111       .  S
C842        H853   1.110       .  S
C842        H854   1.111       .  S
C842        H855   1.110       .  S
C844        C845   1.398       .  A
C844        C849   1.508       .  S
C845        C846   1.404       .  A
C845        H850   1.082       .  S
C846        C847   1.414       .  A
C847        C848   1.406       .  A
C847        C851   1.507       .  S
C848        H852   1.083       .  S
C849        H859   1.111       .  S
C849        H860   1.110       .  S
C849        H861   1.109       .  S
C851        H862   1.110       .  S
C851        H863   1.106       .  S
C851        H864   1.110       .  S
C865        C866   1.401       .  A
C865        C870   1.401       .  A
C865        H875   1.085       .  S
C866        C871   1.477   1_655  S
C866        C867   1.412       .  A
C867        C868   1.401       .  A
C867        C872   1.507       .  S
C868        C869   1.399       .  A
C868        H873   1.084       .  S
C869        C870   1.413       .  A
C870        C874   1.507       .  S
C871        C876   1.410       .  A
C871        C880   1.396       .  A
C872        H888   1.110       .  S
C872        H889   1.110       .  S
C872        H890   1.111       .  S
C874        H885   1.110       .  S
C874        H886   1.111       .  S
C874        H887   1.108       .  S
C876        C877   1.403       .  A
C876        C881   1.508   1_455  S
C877        C878   1.406       .  A
C877        H882   1.084       .  S
C878        C879   1.420       .  A
C879        C880   1.403       .  A
C879        C883   1.503       .  S
C880        H884   1.083       .  S
C881        H891   1.111       .  S
C881        H892   1.110       .  S
C881        H893   1.110       .  S
C883        H894   1.109       .  S
C883        H895   1.110       .  S
C883        H896   1.111       .  S
C897        C898   1.398       .  A
C897        C902   1.401       .  A
C897        H907   1.084       .  S
C898        C903   1.481   1_655  S
C898        C899   1.410       .  A
C899        C900   1.407       .  A
C899        C904   1.505   1_655  S
C900        C901   1.407       .  A
C900        H905   1.083       .  S
C901        C902   1.421       .  A
C902        C906   1.510       .  S
C903        C908   1.408       .  A
C903        C912   1.400       .  A
C904        H920   1.110       .  S
C904        H921   1.110       .  S
C904        H922   1.111       .  S
C906        H917   1.111       .  S
C906        H918   1.111       .  S
C906        H919   1.109       .  S
C908        C909   1.401       .  A
C908        C913   1.508       .  S
C909        C910   1.410       .  A
C909        H914   1.084       .  S
C910        C911   1.422       .  A
C911        C912   1.408       .  A
C911        C915   1.507       .  S
C912        H916   1.084   1_455  S
C913        H923   1.111       .  S
C913        H924   1.110       .  S
C913        H925   1.110       .  S
C915        H926   1.111       .  S
C915        H927   1.110       .  S
C915        H928   1.110       .  S
C929        C930   1.404       .  A
C929        C934   1.408       .  A
C929        H939   1.084       .  S
C930        C935   1.488       .  S
C930        C931   1.412       .  A
C931        C932   1.401       .  A
C931        C936   1.509       .  S
C932        C933   1.407       .  A
C932        H937   1.084       .  S
C933        C934   1.420       .  A
C934        C938   1.507       .  S
C935        C940   1.411   1_455  A
C935        C944   1.399       .  A
C936        H952   1.108       .  S
C936        H953   1.110       .  S
C936        H954   1.111       .  S
C938        H949   1.111       .  S
C938        H950   1.105       .  S
C938        H951   1.110       .  S
C940        C941   1.409       .  A
C940        C945   1.506       .  S
C941        C942   1.411       .  A
C941        H946   1.083       .  S
C942        C943   1.425       .  A
C943        C944   1.401   1_655  A
C943        C947   1.511   1_655  S
C944        H948   1.086       .  S
C945        H955   1.111       .  S
C945        H956   1.109       .  S
C945        H957   1.110       .  S
C947        H958   1.111       .  S
C947        H959   1.110   1_455  S
C947        H960   1.111   1_455  S
C961        C962   1.399       .  A
C961        C966   1.400       .  A
C961        H971   1.086       .  S
C962        C967   1.477       .  S
C962        C963   1.412       .  A
C963        C964   1.403       .  A
C963        C968   1.506       .  S
C964        C965   1.401       .  A
C964        H969   1.083       .  S
C965        C966   1.412       .  A
C966        C970   1.504       .  S
C967        C972   1.409       .  A
C967        C976   1.400       .  A
C968        H984   1.110       .  S
C968        H985   1.110       .  S
C968        H986   1.111       .  S
C970        H981   1.111       .  S
C970        H982   1.110       .  S
C970        H983   1.108       .  S
C972        C973   1.398       .  A
C972        C977   1.508       .  S
C973        C974   1.405       .  A
C973        H978   1.083       .  S
C974        C975   1.419       .  A
C975        C976   1.407       .  A
C975        C979   1.506       .  S
C976        H980   1.084       .  S
C977        H987   1.111       .  S
C977        H988   1.110       .  S
C977        H989   1.110       .  S
C979        H990   1.111       .  S
C979        H991   1.110       .  S
C979        H992   1.111       .  S
C993        C994   1.403       .  A
C993        C998   1.407       .  A
C993       H1003   1.085       .  S
C994        C999   1.485       .  S
C994        C995   1.412       .  A
C995        C996   1.403       .  A
C995       C1000   1.507       .  S
C996        C997   1.402       .  A
C996       H1001   1.085       .  S
C997        C998   1.415       .  A
C998       C1002   1.506       .  S
C999       C1004   1.409   1_545  A
C999       C1008   1.403       .  A
C1000      H1016   1.110       .  S
C1000      H1017   1.110       .  S
C1000      H1018   1.111       .  S
C1002      H1013   1.110       .  S
C1002      H1014   1.109       .  S
C1002      H1015   1.109       .  S
C1004      C1005   1.405       .  A
C1004      C1009   1.506       .  S
C1005      C1006   1.409       .  A
C1005      H1010   1.084       .  S
C1006      C1007   1.418       .  A
C1007      C1008   1.406   1_565  A
C1007      C1011   1.508       .  S
C1008      H1012   1.084       .  S
C1009      H1019   1.111       .  S
C1009      H1020   1.110       .  S
C1009      H1021   1.110       .  S
C1011      H1022   1.111       .  S
C1011      H1023   1.107       .  S
C1011      H1024   1.110   1_565  S
C1025      C1026   1.399       .  A
C1025      C1030   1.403       .  A
C1025      H1035   1.084       .  S
C1026      C1031   1.490       .  S
C1026      C1027   1.414       .  A
C1027      C1028   1.409       .  A
C1027      C1032   1.507       .  S
C1028      C1029   1.407       .  A
C1028      H1033   1.085       .  S
C1029      C1030   1.423       .  A
C1030      C1034   1.508       .  S
C1031      C1036   1.417       .  A
C1031      C1040   1.399       .  A
C1032      H1048   1.108       .  S
C1032      H1049   1.110       .  S
C1032      H1050   1.111       .  S
C1034      H1045   1.109       .  S
C1034      H1046   1.111       .  S
C1034      H1047   1.109       .  S
C1036      C1037   1.411       .  A
C1036      C1041   1.506       .  S
C1037      C1038   1.405       .  A
C1037      H1042   1.085       .  S
C1038      C1039   1.415       .  A
C1039      C1040   1.397       .  A
C1039      C1043   1.502       .  S
C1040      H1044   1.086       .  S
C1041      H1051   1.111       .  S
C1041      H1052   1.108       .  S
C1041      H1053   1.110       .  S
C1043      H1054   1.110       .  S
C1043      H1055   1.100       .  S
C1043      H1056   1.111       .  S
C1057      C1058   1.399       .  A
C1057      C1062   1.398       .  A
C1057      H1067   1.084       .  S
C1058      C1063   1.481   1_455  S
C1058      C1059   1.413       .  A
C1059      C1060   1.406       .  A
C1059      C1064   1.506       .  S
C1060      C1061   1.403       .  A
C1060      H1065   1.084       .  S
C1061      C1062   1.417       .  A
C1062      C1066   1.510       .  S
C1063      C1068   1.411       .  A
C1063      C1072   1.400   1_655  A
C1064      H1080   1.109       .  S
C1064      H1081   1.110       .  S
C1064      H1082   1.111       .  S
C1066      H1077   1.109       .  S
C1066      H1078   1.110       .  S
C1066      H1079   1.107       .  S
C1068      C1069   1.403       .  A
C1068      C1073   1.507       .  S
C1069      C1070   1.405       .  A
C1069      H1074   1.081       .  S
C1070      C1071   1.418       .  A
C1071      C1072   1.404   1_655  A
C1071      C1075   1.506       .  S
C1072      H1076   1.084       .  S
C1073      H1083   1.111       .  S
C1073      H1084   1.109       .  S
C1073      H1085   1.110       .  S
C1075      H1086   1.111   1_655  S
C1075      H1087   1.102       .  S
C1075      H1088   1.110       .  S
C1089      C1090   1.401       .  A
C1089      C1094   1.411       .  A
C1089      H1099   1.086       .  S
C1090      C1095   1.487       .  S
C1090      C1091   1.410       .  A
C1091      C1092   1.402       .  A
C1091      C1096   1.508       .  S
C1092      C1093   1.408       .  A
C1092      H1097   1.084       .  S
C1093      C1094   1.424       .  A
C1094      C1098   1.507       .  S
C1095      C1100   1.409       .  A
C1095      C1104   1.399       .  A
C1096      H1112   1.110       .  S
C1096      H1113   1.110       .  S
C1096      H1114   1.111       .  S
C1098      H1109   1.110       .  S
C1098      H1110   1.111       .  S
C1098      H1111   1.110       .  S
C1100      C1101   1.405       .  A
C1100      C1105   1.506       .  S
C1101      C1102   1.410       .  A
C1101      H1106   1.083       .  S
C1102      C1103   1.425       .  A
C1103      C1104   1.407       .  A
C1103      C1107   1.508       .  S
C1104      H1108   1.085       .  S
C1105      H1115   1.111       .  S
C1105      H1116   1.110       .  S
C1105      H1117   1.110       .  S
C1107      H1118   1.110       .  S
C1107      H1119   1.110       .  S
C1107      H1120   1.111       .  S
C1121      C1122   1.400       .  A
C1121      C1126   1.399       .  A
C1121      H1131   1.085       .  S
C1122      C1127   1.476       .  S
C1122      C1123   1.410       .  A
C1123      C1124   1.405       .  A
C1123      C1128   1.505       .  S
C1124      C1125   1.402       .  A
C1124      H1129   1.085       .  S
C1125      C1126   1.414       .  A
C1126      C1130   1.508       .  S
C1127      C1132   1.410   1_455  A
C1127      C1136   1.399       .  A
C1128      H1144   1.110       .  S
C1128      H1145   1.109       .  S
C1128      H1146   1.111       .  S
C1130      H1141   1.110       .  S
C1130      H1142   1.110       .  S
C1130      H1143   1.107       .  S
C1132      C1133   1.406       .  A
C1132      C1137   1.505       .  S
C1133      C1134   1.404   1_554  A
C1133      H1138   1.084       .  S
C1134      C1135   1.413       .  A
C1135      C1136   1.399   1_656  A
C1135      C1139   1.503   1_655  S
C1136      H1140   1.086   1_554  S
C1137      H1147   1.111       .  S
C1137      H1148   1.110       .  S
C1137      H1149   1.110       .  S
C1139      H1150   1.108   1_455  S
C1139      H1151   1.110   1_455  S
C1139      H1152   1.111       .  S
C1153      C1154   1.402   1_554  A
C1153      C1158   1.405       .  A
C1153      H1163   1.084       .  S
C1154      C1159   1.486       .  S
C1154      C1155   1.410       .  A
C1155      C1156   1.404       .  A
C1155      C1160   1.507       .  S
C1156      C1157   1.408   1_556  A
C1156      H1161   1.084       .  S
C1157      C1158   1.422       .  A
C1158      C1162   1.510       .  S
C1159      C1164   1.411       .  A
C1159      C1168   1.403       .  A
C1160      H1176   1.109       .  S
C1160      H1177   1.110       .  S
C1160      H1178   1.111       .  S
C1162      H1173   1.111       .  S
C1162      H1174   1.109       .  S
C1162      H1175   1.111       .  S
C1164      C1165   1.404       .  A
C1164      C1169   1.507       .  S
C1165      C1166   1.406       .  A
C1165      H1170   1.082       .  S
C1166      C1167   1.417       .  A
C1167      C1168   1.403       .  A
C1167      C1171   1.509       .  S
C1168      H1172   1.082       .  S
C1169      H1179   1.111       .  S
C1169      H1180   1.109       .  S
C1169      H1181   1.111       .  S
C1171      H1182   1.110       .  S
C1171      H1183   1.104       .  S
C1171      H1184   1.110       .  S
C1185      C1186   1.402       .  A
C1185      C1190   1.405       .  A
C1185      H1195   1.086       .  S
C1186      C1191   1.485       .  S
C1186      C1187   1.413       .  A
C1187      C1188   1.405       .  A
C1187      C1192   1.507   1_554  S
C1188      C1189   1.402       .  A
C1188      H1193   1.087       .  S
C1189      C1190   1.415       .  A
C1190      C1194   1.507       .  S
C1191      C1196   1.409       .  A
C1191      C1200   1.398   1_554  A
C1192      H1208   1.110       .  S
C1192      H1209   1.109   1_556  S
C1192      H1210   1.111       .  S
C1194      H1205   1.110       .  S
C1194      H1206   1.110       .  S
C1194      H1207   1.109       .  S
C1196      C1197   1.409       .  A
C1196      C1201   1.506       .  S
C1197      C1198   1.411   1_554  A
C1197      H1202   1.084       .  S
C1198      C1199   1.426       .  A
C1199      C1200   1.404       .  A
C1199      C1203   1.509       .  S
C1200      H1204   1.084       .  S
C1201      H1211   1.111       .  S
C1201      H1212   1.110       .  S
C1201      H1213   1.109       .  S
C1203      H1214   1.111       .  S
C1203      H1215   1.107       .  S
C1203      H1216   1.110       .  S
C1217      C1218   1.400       .  A
C1217      C1222   1.398       .  A
C1217      H1227   1.084       .  S
C1218      C1223   1.476       .  S
C1218      C1219   1.410       .  A
C1219      C1220   1.405       .  A
C1219      C1224   1.505       .  S
C1220      C1221   1.403       .  A
C1220      H1225   1.084       .  S
C1221      C1222   1.415       .  A
C1222      C1226   1.508       .  S
C1223      C1228   1.411   1_556  A
C1223      C1232   1.400   1_545  A
C1224      H1240   1.110       .  S
C1224      H1241   1.110       .  S
C1224      H1242   1.111       .  S
C1226      H1237   1.110   1_556  S
C1226      H1238   1.110       .  S
C1226      H1239   1.107       .  S
C1228      C1229   1.399   1_545  A
C1228      C1233   1.508       .  S
C1229      C1230   1.400       .  A
C1229      H1234   1.086       .  S
C1230      C1231   1.417   1_554  A
C1231      C1232   1.404       .  A
C1231      C1235   1.508       .  S
C1232      H1236   1.087       .  S
C1233      H1243   1.111       .  S
C1233      H1244   1.110       .  S
C1233      H1245   1.110   1_554  S
C1235      H1246   1.110       .  S
C1235      H1247   1.106       .  S
C1235      H1248   1.110       .  S
C1249      C1250   1.401       .  A
C1249      C1254   1.403       .  A
C1249      H1259   1.086       .  S
C1250      C1255   1.486       .  S
C1250      C1251   1.411       .  A
C1251      C1252   1.407       .  A
C1251      C1256   1.505       .  S
C1252      C1253   1.406       .  A
C1252      H1257   1.086       .  S
C1253      C1254   1.419       .  A
C1254      C1258   1.509       .  S
C1255      C1260   1.409       .  A
C1255      C1264   1.399       .  A
C1256      H1272   1.110       .  S
C1256      H1273   1.110       .  S
C1256      H1274   1.111       .  S
C1258      H1269   1.110       .  S
C1258      H1270   1.111       .  S
C1258      H1271   1.106       .  S
C1260      C1261   1.407       .  A
C1260      C1265   1.506       .  S
C1261      C1262   1.411       .  A
C1261      H1266   1.084       .  S
C1262      C1263   1.424       .  A
C1263      C1264   1.407       .  A
C1263      C1267   1.509       .  S
C1264      H1268   1.084       .  S
C1265      H1275   1.111       .  S
C1265      H1276   1.110       .  S
C1265      H1277   1.111       .  S
C1267      H1278   1.109       .  S
C1267      H1279   1.111       .  S
C1267      H1280   1.111       .  S
C1281      C1282   1.399       .  A
C1281      C1286   1.405       .  A
C1281      H1291   1.086       .  S
C1282      C1287   1.480   1_565  S
C1282      C1283   1.410       .  A
C1283      C1284   1.401       .  A
C1283      C1288   1.508   1_565  S
C1284      C1285   1.408       .  A
C1284      H1289   1.085       .  S
C1285      C1286   1.420       .  A
C1286      C1290   1.507       .  S
C1287      C1292   1.409       .  A
C1287      C1296   1.399       .  A
C1288      H1304   1.110       .  S
C1288      H1305   1.110       .  S
C1288      H1306   1.111       .  S
C1290      H1301   1.111       .  S
C1290      H1302   1.109       .  S
C1290      H1303   1.111       .  S
C1292      C1293   1.404       .  A
C1292      C1297   1.506       .  S
C1293      C1294   1.406       .  A
C1293      H1298   1.083       .  S
C1294      C1295   1.422       .  A
C1295      C1296   1.402       .  A
C1295      C1299   1.510       .  S
C1296      H1300   1.085   1_545  S
C1297      H1307   1.111       .  S
C1297      H1308   1.110       .  S
C1297      H1309   1.110       .  S
C1299      H1310   1.110       .  S
C1299      H1311   1.110       .  S
C1299      H1312   1.111   1_545  S
C1313      C1314   1.398       .  A
C1313      C1318   1.401       .  A
C1313      H1323   1.086       .  S
C1314      C1319   1.476       .  S
C1314      C1315   1.411       .  A
C1315      C1316   1.403       .  A
C1315      C1320   1.506       .  S
C1316      C1317   1.403       .  A
C1316      H1321   1.084       .  S
C1317      C1318   1.418       .  A
C1318      C1322   1.508       .  S
C1319      C1324   1.408   1_556  A
C1319      C1328   1.399       .  A
C1320      H1336   1.110       .  S
C1320      H1337   1.110       .  S
C1320      H1338   1.111       .  S
C1322      H1333   1.108       .  S
C1322      H1334   1.111       .  S
C1322      H1335   1.110       .  S
C1324      C1325   1.397       .  A
C1324      C1329   1.509       .  S
C1325      C1326   1.407       .  A
C1325      H1330   1.084       .  S
C1326      C1327   1.424   1_554  A
C1327      C1328   1.407       .  A
C1327      C1331   1.508       .  S
C1328      H1332   1.083       .  S
C1329      H1339   1.111       .  S
C1329      H1340   1.110       .  S
C1329      H1341   1.110       .  S
C1331      H1342   1.111       .  S
C1331      H1343   1.110       .  S
C1331      H1344   1.109       .  S
C1345      C1346   1.400   1_455  A
C1345      C1350   1.403       .  A
C1345      H1355   1.082       .  S
C1346      C1351   1.472       .  S
C1346      C1347   1.409       .  A
C1347      C1348   1.398   1_654  A
C1347      C1352   1.508   1_554  S
C1348      C1349   1.402       .  A
C1348      H1353   1.083       .  S
C1349      C1350   1.416   1_556  A
C1350      C1354   1.507       .  S
C1351      C1356   1.410       .  A
C1351      C1360   1.401       .  A
C1352      H1368   1.110   1_556  S
C1352      H1369   1.110       .  S
C1352      H1370   1.111       .  S
C1354      H1365   1.110       .  S
C1354      H1366   1.110       .  S
C1354      H1367   1.106       .  S
C1356      C1357   1.397       .  A
C1356      C1361   1.509       .  S
C1357      C1358   1.401       .  A
C1357      H1362   1.084       .  S
C1358      C1359   1.414       .  A
C1359      C1360   1.403       .  A
C1359      C1363   1.506       .  S
C1360      H1364   1.084       .  S
C1361      H1371   1.111       .  S
C1361      H1372   1.110       .  S
C1361      H1373   1.110   1_554  S
C1363      H1374   1.110       .  S
C1363      H1375   1.106       .  S
C1363      H1376   1.111       .  S
C1377      C1378   1.401   1_545  A
C1377      C1382   1.408       .  A
C1377      H1387   1.084   1_545  S
C1378      C1383   1.485       .  S
C1378      C1379   1.410       .  A
C1379      C1380   1.401   1_566  A
C1379      C1384   1.509   1_556  S
C1380      C1381   1.408       .  A
C1380      H1385   1.083       .  S
C1381      C1382   1.422   1_554  A
C1382      C1386   1.507       .  S
C1383      C1388   1.411       .  A
C1383      C1392   1.404       .  A
C1384      H1400   1.110   1_554  S
C1384      H1401   1.110       .  S
C1384      H1402   1.111       .  S
C1386      H1397   1.110       .  S
C1386      H1398   1.111       .  S
C1386      H1399   1.110       .  S
C1388      C1389   1.400       .  A
C1388      C1393   1.508       .  S
C1389      C1390   1.404       .  A
C1389      H1394   1.086       .  S
C1390      C1391   1.416       .  A
C1391      C1392   1.407       .  A
C1391      C1395   1.507       .  S
C1392      H1396   1.085       .  S
C1393      H1403   1.111       .  S
C1393      H1404   1.109       .  S
C1393      H1405   1.110   1_556  S
C1395      H1406   1.110       .  S
C1395      H1407   1.106       .  S
C1395      H1408   1.111       .  S
C1409      C1410   1.399       .  A
C1409      C1414   1.401   1_554  A
C1409      H1419   1.086       .  S
C1410      C1415   1.480       .  S
C1410      C1411   1.408       .  A
C1411      C1412   1.404       .  A
C1411      C1416   1.505       .  S
C1412      C1413   1.408   1_554  A
C1412      H1417   1.087       .  S
C1413      C1414   1.418       .  A
C1414      C1418   1.507       .  S
C1415      C1420   1.413       .  A
C1415      C1424   1.403       .  A
C1416      H1432   1.110       .  S
C1416      H1433   1.110       .  S
C1416      H1434   1.111       .  S
C1418      H1429   1.111       .  S
C1418      H1430   1.110       .  S
C1418      H1431   1.107       .  S
C1420      C1421   1.400       .  A
C1420      C1425   1.508   1_554  S
C1421      C1422   1.400       .  A
C1421      H1426   1.084       .  S
C1422      C1423   1.410       .  A
C1423      C1424   1.407       .  A
C1423      C1427   1.505       .  S
C1424      H1428   1.084       .  S
C1425      H1435   1.111       .  S
C1425      H1436   1.109       .  S
C1425      H1437   1.110       .  S
C1427      H1438   1.111       .  S
C1427      H1439   1.108       .  S
C1427      H1440   1.110       .  S
C1441      C1442   1.400       .  A
C1441      C1446   1.402       .  A
C1441      H1451   1.087       .  S
C1442      C1447   1.482       .  S
C1442      C1443   1.412       .  A
C1443      C1444   1.403       .  A
C1443      C1448   1.507       .  S
C1444      C1445   1.403       .  A
C1444      H1449   1.086       .  S
C1445      C1446   1.419       .  A
C1446      C1450   1.509       .  S
C1447      C1452   1.412       .  A
C1447      C1456   1.400       .  A
C1448      H1464   1.109       .  S
C1448      H1465   1.110       .  S
C1448      H1466   1.111       .  S
C1450      H1461   1.110       .  S
C1450      H1462   1.111       .  S
C1450      H1463   1.104       .  S
C1452      C1453   1.406       .  A
C1452      C1457   1.506       .  S
C1453      C1454   1.404       .  A
C1453      H1458   1.084       .  S
C1454      C1455   1.417       .  A
C1455      C1456   1.399       .  A
C1455      C1459   1.509       .  S
C1456      H1460   1.083       .  S
C1457      H1467   1.111       .  S
C1457      H1468   1.109       .  S
C1457      H1469   1.110       .  S
C1459      H1470   1.110       .  S
C1459      H1471   1.103       .  S
C1459      H1472   1.110       .  S
C1473      C1474   1.402       .  A
C1473      C1478   1.404       .  A
C1473      H1483   1.085       .  S
C1474      C1479   1.491       .  S
C1474      C1475   1.413       .  A
C1475      C1476   1.408       .  A
C1475      C1480   1.506       .  S
C1476      C1477   1.405       .  A
C1476      H1481   1.084       .  S
C1477      C1478   1.420       .  A
C1478      C1482   1.510       .  S
C1479      C1484   1.413       .  A
C1479      C1488   1.401       .  A
C1480      H1496   1.109       .  S
C1480      H1497   1.110       .  S
C1480      H1498   1.111       .  S
C1482      H1493   1.110       .  S
C1482      H1494   1.111       .  S
C1482      H1495   1.103       .  S
C1484      C1485   1.408       .  A
C1484      C1489   1.506       .  S
C1485      C1486   1.404       .  A
C1485      H1490   1.086       .  S
C1486      C1487   1.420       .  A
C1487      C1488   1.404       .  A
C1487      C1491   1.508       .  S
C1488      H1492   1.086       .  S
C1489      H1499   1.111       .  S
C1489      H1500   1.109       .  S
C1489      H1501   1.110       .  S
C1491      H1502   1.111       .  S
C1491      H1503   1.102       .  S
C1491      H1504   1.111       .  S
C1505      C1506   1.403       .  A
C1505      C1510   1.406       .  A
C1505      H1515   1.083       .  S
C1506      C1511   1.491       .  S
C1506      C1507   1.414       .  A
C1507      C1508   1.405       .  A
C1507      C1512   1.507       .  S
C1508      C1509   1.405       .  A
C1508      H1513   1.085       .  S
C1509      C1510   1.417       .  A
C1510      C1514   1.508       .  S
C1511      C1516   1.415       .  A
C1511      C1520   1.401       .  A
C1512      H1528   1.109       .  S
C1512      H1529   1.110       .  S
C1512      H1530   1.111       .  S
C1514      H1525   1.110       .  S
C1514      H1526   1.111       .  S
C1514      H1527   1.106       .  S
C1516      C1517   1.410       .  A
C1516      C1521   1.506       .  S
C1517      C1518   1.405       .  A
C1517      H1522   1.082       .  S
C1518      C1519   1.417       .  A
C1519      C1520   1.402       .  A
C1519      C1523   1.510       .  S
C1520      H1524   1.084       .  S
C1521      H1531   1.111       .  S
C1521      H1532   1.109       .  S
C1521      H1533   1.111       .  S
C1523      H1534   1.110       .  S
C1523      H1535   1.106       .  S
C1523      H1536   1.110       .  S
C1537      C1538   1.403       .  A
C1537      C1542   1.411       .  A
C1537      H1547   1.084       .  S
C1538      C1543   1.489       .  S
C1538      C1539   1.411       .  A
C1539      C1540   1.405       .  A
C1539      C1544   1.507       .  S
C1540      C1541   1.406       .  A
C1540      H1545   1.083       .  S
C1541      C1542   1.420       .  A
C1542      C1546   1.507       .  S
C1543      C1548   1.410       .  A
C1543      C1552   1.400       .  A
C1544      H1560   1.110       .  S
C1544      H1561   1.110       .  S
C1544      H1562   1.111       .  S
C1546      H1557   1.109       .  S
C1546      H1558   1.111       .  S
C1546      H1559   1.111       .  S
C1548      C1549   1.406       .  A
C1548      C1553   1.506       .  S
C1549      C1550   1.409       .  A
C1549      H1554   1.084       .  S
C1550      C1551   1.426       .  A
C1551      C1552   1.409       .  A
C1551      C1555   1.509       .  S
C1552      H1556   1.085       .  S
C1553      H1563   1.111       .  S
C1553      H1564   1.110       .  S
C1553      H1565   1.110       .  S
C1555      H1566   1.111       .  S
C1555      H1567   1.111       .  S
C1555      H1568   1.110       .  S
C1569      C1570   1.403       .  A
C1569      C1574   1.408   1_655  A
C1569      H1579   1.084       .  S
C1570      C1575   1.490       .  S
C1570      C1571   1.410   1_655  A
C1571      C1572   1.407       .  A
C1571      C1576   1.506       .  S
C1572      C1573   1.409       .  A
C1572      H1577   1.084       .  S
C1573      C1574   1.420       .  A
C1574      C1578   1.509       .  S
C1575      C1580   1.412       .  A
C1575      C1584   1.402       .  A
C1576      H1592   1.110       .  S
C1576      H1593   1.110       .  S
C1576      H1594   1.111       .  S
C1578      H1589   1.111   1_455  S
C1578      H1590   1.109       .  S
C1578      H1591   1.111       .  S
C1580      C1581   1.409       .  A
C1580      C1585   1.505       .  S
C1581      C1582   1.405       .  A
C1581      H1586   1.082       .  S
C1582      C1583   1.417       .  A
C1583      C1584   1.404       .  A
C1583      C1587   1.507       .  S
C1584      H1588   1.084       .  S
C1585      H1595   1.111       .  S
C1585      H1596   1.110       .  S
C1585      H1597   1.111       .  S
C1587      H1598   1.111       .  S
C1587      H1599   1.104       .  S
C1587      H1600   1.110       .  S
C1601      C1602   1.402       .  A
C1601      C1606   1.406       .  A
C1601      H1611   1.085       .  S
C1602      C1607   1.479       .  S
C1602      C1603   1.410       .  A
C1603      C1604   1.400       .  A
C1603      C1608   1.508       .  S
C1604      C1605   1.403       .  A
C1604      H1609   1.086       .  S
C1605      C1606   1.415       .  A
C1606      C1610   1.507       .  S
C1607      C1612   1.412       .  A
C1607      C1616   1.401       .  A
C1608      H1624   1.110       .  S
C1608      H1625   1.110       .  S
C1608      H1626   1.111       .  S
C1610      H1621   1.111       .  S
C1610      H1622   1.110       .  S
C1610      H1623   1.107       .  S
C1612      C1613   1.400       .  A
C1612      C1617   1.508       .  S
C1613      C1614   1.401       .  A
C1613      H1618   1.084       .  S
C1614      C1615   1.417       .  A
C1615      C1616   1.406       .  A
C1615      C1619   1.508       .  S
C1616      H1620   1.083       .  S
C1617      H1627   1.111       .  S
C1617      H1628   1.110       .  S
C1617      H1629   1.110       .  S
C1619      H1630   1.110       .  S
C1619      H1631   1.107       .  S
C1619      H1632   1.111       .  S
C1633      C1634   1.401       .  A
C1633      C1638   1.411       .  A
C1633      H1643   1.082       .  S
C1634      C1639   1.484       .  S
C1634      C1635   1.408       .  A
C1635      C1636   1.400       .  A
C1635      C1640   1.509       .  S
C1636      C1637   1.410       .  A
C1636      H1641   1.084       .  S
C1637      C1638   1.424       .  A
C1638      C1642   1.507       .  S
C1639      C1644   1.409       .  A
C1639      C1648   1.401       .  A
C1640      H1656   1.110       .  S
C1640      H1657   1.110       .  S
C1640      H1658   1.111       .  S
C1642      H1653   1.111       .  S
C1642      H1654   1.110       .  S
C1642      H1655   1.110       .  S
C1644      C1645   1.404       .  A
C1644      C1649   1.506       .  S
C1645      C1646   1.406       .  A
C1645      H1650   1.085       .  S
C1646      C1647   1.421       .  A
C1647      C1648   1.405       .  A
C1647      C1651   1.509       .  S
C1648      H1652   1.084       .  S
C1649      H1659   1.111       .  S
C1649      H1660   1.110       .  S
C1649      H1661   1.110       .  S
C1651      H1662   1.110       .  S
C1651      H1663   1.103       .  S
C1651      H1664   1.111       .  S
C1665      C1666   1.402       .  A
C1665      C1670   1.407       .  A
C1665      H1675   1.084       .  S
C1666      C1671   1.483   1_565  S
C1666      C1667   1.411       .  A
C1667      C1668   1.401       .  A
C1667      C1672   1.507   1_565  S
C1668      C1669   1.403       .  A
C1668      H1673   1.083       .  S
C1669      C1670   1.418       .  A
C1670      C1674   1.507       .  S
C1671      C1676   1.411       .  A
C1671      C1680   1.400       .  A
C1672      H1688   1.110       .  S
C1672      H1689   1.110       .  S
C1672      H1690   1.111       .  S
C1674      H1685   1.110       .  S
C1674      H1686   1.110       .  S
C1674      H1687   1.106       .  S
C1676      C1677   1.408       .  A
C1676      C1681   1.505       .  S
C1677      C1678   1.404       .  A
C1677      H1682   1.086       .  S
C1678      C1679   1.416       .  A
C1679      C1680   1.400       .  A
C1679      C1683   1.508       .  S
C1680      H1684   1.087       .  S
C1681      H1691   1.111       .  S
C1681      H1692   1.110       .  S
C1681      H1693   1.110       .  S
C1683      H1694   1.111       .  S
C1683      H1695   1.107       .  S
C1683      H1696   1.110       .  S
C1697      C1698   1.400       .  A
C1697      C1702   1.407       .  A
C1697      H1707   1.084       .  S
C1698      C1703   1.484       .  S
C1698      C1699   1.409       .  A
C1699      C1700   1.403       .  A
C1699      C1704   1.507       .  S
C1700      C1701   1.408       .  A
C1700      H1705   1.083       .  S
C1701      C1702   1.424       .  A
C1702      C1706   1.509       .  S
C1703      C1708   1.411       .  A
C1703      C1712   1.400       .  A
C1704      H1720   1.110       .  S
C1704      H1721   1.110       .  S
C1704      H1722   1.111       .  S
C1706      H1717   1.111       .  S
C1706      H1718   1.110       .  S
C1706      H1719   1.111       .  S
C1708      C1709   1.408       .  A
C1708      C1713   1.505       .  S
C1709      C1710   1.405       .  A
C1709      H1714   1.085       .  S
C1710      C1711   1.417       .  A
C1711      C1712   1.401       .  A
C1711      C1715   1.509       .  S
C1712      H1716   1.086       .  S
C1713      H1723   1.111       .  S
C1713      H1724   1.110       .  S
C1713      H1725   1.110       .  S
C1715      H1726   1.111       .  S
C1715      H1727   1.106       .  S
C1715      H1728   1.110       .  S
C1729      C1730   1.403       .  A
C1729      C1734   1.409       .  A
C1729      H1739   1.082       .  S
C1730      C1735   1.488   1_465  S
C1730      C1731   1.409       .  A
C1731      C1732   1.405       .  A
C1731      C1736   1.508   1_565  S
C1732      C1733   1.410       .  A
C1732      H1737   1.081       .  S
C1733      C1734   1.420       .  A
C1734      C1738   1.507       .  S
C1735      C1740   1.412       .  A
C1735      C1744   1.399       .  A
C1736      H1752   1.110       .  S
C1736      H1753   1.110       .  S
C1736      H1754   1.111       .  S
C1738      H1749   1.111       .  S
C1738      H1750   1.110       .  S
C1738      H1751   1.111       .  S
C1740      C1741   1.409       .  A
C1740      C1745   1.505   1_655  S
C1741      C1742   1.406       .  A
C1741      H1746   1.083       .  S
C1742      C1743   1.422       .  A
C1743      C1744   1.404       .  A
C1743      C1747   1.509       .  S
C1744      H1748   1.084   1_545  S
C1745      H1755   1.111       .  S
C1745      H1756   1.110       .  S
C1745      H1757   1.110       .  S
C1747      H1758   1.111       .  S
C1747      H1759   1.106       .  S
C1747      H1760   1.109       .  S
C1761      C1762   1.399       .  A
C1761      C1766   1.401   1_565  A
C1761      H1771   1.084       .  S
C1762      C1767   1.478       .  S
C1762      C1763   1.406   1_565  A
C1763      C1764   1.404       .  A
C1763      C1768   1.506       .  S
C1764      C1765   1.410       .  A
C1764      H1769   1.083       .  S
C1765      C1766   1.422       .  A
C1766      C1770   1.510   1_545  S
C1767      C1772   1.412       .  A
C1767      C1776   1.401       .  A
C1768      H1784   1.110   1_545  S
C1768      H1785   1.110       .  S
C1768      H1786   1.111       .  S
C1770      H1781   1.111       .  S
C1770      H1782   1.108   1_565  S
C1770      H1783   1.109   1_565  S
C1772      C1773   1.402       .  A
C1772      C1777   1.507       .  S
C1773      C1774   1.401       .  A
C1773      H1778   1.084       .  S
C1774      C1775   1.412       .  A
C1775      C1776   1.401       .  A
C1775      C1779   1.506       .  S
C1776      H1780   1.085       .  S
C1777      H1787   1.111       .  S
C1777      H1788   1.109       .  S
C1777      H1789   1.110       .  S
C1779      H1790   1.110       .  S
C1779      H1791   1.109       .  S
C1779      H1792   1.111       .  S
C1793      C1794   1.402       .  A
C1793      C1798   1.408       .  A
C1793      H1803   1.083       .  S
C1794      C1799   1.479       .  S
C1794      C1795   1.408       .  A
C1795      C1796   1.397       .  A
C1795      C1800   1.508       .  S
C1796      C1797   1.408       .  A
C1796      H1801   1.085       .  S
C1797      C1798   1.419       .  A
C1798      C1802   1.507       .  S
C1799      C1804   1.408       .  A
C1799      C1808   1.402       .  A
C1800      H1816   1.110       .  S
C1800      H1817   1.110       .  S
C1800      H1818   1.111       .  S
C1802      H1813   1.111       .  S
C1802      H1814   1.110       .  S
C1802      H1815   1.111       .  S
C1804      C1805   1.401       .  A
C1804      C1809   1.507       .  S
C1805      C1806   1.408       .  A
C1805      H1810   1.085       .  S
C1806      C1807   1.417       .  A
C1807      C1808   1.406       .  A
C1807      C1811   1.507       .  S
C1808      H1812   1.085       .  S
C1809      H1819   1.111       .  S
C1809      H1820   1.110       .  S
C1809      H1821   1.110       .  S
C1811      H1822   1.111       .  S
C1811      H1823   1.110       .  S
C1811      H1824   1.111       .  S
C1825      C1826   1.402       .  A
C1825      C1830   1.400       .  A
C1825      H1835   1.086       .  S
C1826      C1831   1.482       .  S
C1826      C1827   1.412       .  A
C1827      C1828   1.404       .  A
C1827      C1832   1.507       .  S
C1828      C1829   1.404       .  A
C1828      H1833   1.085       .  S
C1829      C1830   1.415       .  A
C1830      C1834   1.509       .  S
C1831      C1836   1.412   1_455  A
C1831      C1840   1.400       .  A
C1832      H1848   1.109       .  S
C1832      H1849   1.110       .  S
C1832      H1850   1.111       .  S
C1834      H1845   1.110       .  S
C1834      H1846   1.111       .  S
C1834      H1847   1.105       .  S
C1836      C1837   1.405       .  A
C1836      C1841   1.507       .  S
C1837      C1838   1.407       .  A
C1837      H1842   1.082       .  S
C1838      C1839   1.421       .  A
C1839      C1840   1.400   1_655  A
C1839      C1843   1.510       .  S
C1840      H1844   1.083       .  S
C1841      H1851   1.111       .  S
C1841      H1852   1.109       .  S
C1841      H1853   1.110       .  S
C1843      H1854   1.109       .  S
C1843      H1855   1.108       .  S
C1843      H1856   1.111   1_655  S
C1857      C1858   1.400       .  A
C1857      C1862   1.401       .  A
C1857      H1867   1.083       .  S
C1858      C1863   1.481       .  S
C1858      C1859   1.410       .  A
C1859      C1860   1.407       .  A
C1859      C1864   1.505       .  S
C1860      C1861   1.406       .  A
C1860      H1865   1.083       .  S
C1861      C1862   1.414       .  A
C1862      C1866   1.506       .  S
C1863      C1868   1.411       .  A
C1863      C1872   1.401       .  A
C1864      H1880   1.110       .  S
C1864      H1881   1.110       .  S
C1864      H1882   1.111       .  S
C1866      H1877   1.111       .  S
C1866      H1878   1.109       .  S
C1866      H1879   1.111       .  S
C1868      C1869   1.405       .  A
C1868      C1873   1.505       .  S
C1869      C1870   1.402       .  A
C1869      H1874   1.084       .  S
C1870      C1871   1.414       .  A
C1871      C1872   1.402       .  A
C1871      C1875   1.508       .  S
C1872      H1876   1.085       .  S
C1873      H1883   1.111       .  S
C1873      H1884   1.110       .  S
C1873      H1885   1.110       .  S
C1875      H1886   1.110       .  S
C1875      H1887   1.107       .  S
C1875      H1888   1.110       .  S
