geometry optimzed in LAMMPS
_audit_creation_date              2020-12-01 
_audit_creation_method            'lammps2cif' 
_symmetry_space_group_name_H-M    'P1' 
_symmetry_Int_Tables_number       1 
_symmetry_cell_setting            triclinic 
loop_ 
_symmetry_equiv_pos_as_xyz 
  x,y,z 
_cell_length_a                    52.1367384 
_cell_length_b                    52.130131960648306 
_cell_length_c                    32.58727037419773 
_cell_angle_alpha                 90.0049443759398 
_cell_angle_beta                  90.07982465514026 
_cell_angle_gamma                 120.19413329133732 
loop_ 
_atom_site_label 
_atom_site_type_symbol 
_atom_site_fract_x 
_atom_site_fract_y 
_atom_site_fract_z 
_atom_site_charge 
O1          O  0.82485571  0.28255549  0.16901969    -0.81100
O2          O  0.83458404  0.22569027  0.32892373    -0.65800
O3          O  0.82372113  0.27565740  0.25465636    -1.12400
C4          C  0.92906568  0.33163723  0.26625001     1.05800
O5          O  0.85865738  0.26512362  0.36747917    -0.79000
O6          O  0.87795656  0.32121503  0.34415874    -0.66600
Ni7        Ni  0.79596628  0.25875626  0.21056998     1.34900
C8          C  0.87059890  0.33577505  0.32054665     0.84500
O9          O  0.78618426  0.22310935  0.29865370    -0.79500
O10         O  0.76399868  0.23386613  0.24827811    -0.89800
C11         C  0.84783808  0.23749568  0.36213944     0.84100
O12         O  0.80263359  0.22674758  0.19694028    -0.68000
O13         O  0.92412512  0.32210575  0.30317597    -0.87300
C14         C  0.81802534  0.21675546  0.21310595     0.84900
C15         C  0.76304956  0.22037541  0.28156603     1.06500
H16         H  0.87805478  0.26613686  0.27212687     0.38300
O17         O  0.86900909  0.27632227  0.28505859    -1.10000
O18         O  0.86616862  0.33006740  0.28229404    -0.66600
Ni19       Ni  0.86578783  0.30073232  0.24510289     1.26300
O20         O  0.82970874  0.22486450  0.24856415    -0.66800
O21         O  0.90848688  0.32473221  0.23944641    -0.79100
C22         C  0.84695964  0.30905190  0.16796319     0.84300
O23         O  0.86085107  0.32202955  0.20065328    -0.66300
Ni24       Ni  0.89064148  0.29338747  0.33402583     1.27400
Ni25       Ni  0.82771597  0.24941886  0.29136046     1.26100
H26         H  0.81696383  0.28665035  0.27083265     0.38800
O27         O  0.94120745  0.17016683  0.66795551    -0.81100
O28         O  0.88412096  0.17688525  0.50795701    -0.65800
O29         O  0.93352606  0.16628390  0.58275336    -1.12400
C30         C  0.99226082  0.27092188  0.56624580     1.05800
O31         O  0.92260405  0.19935965  0.46696049    -0.79000
O32         O  0.97878083  0.21622317  0.49054473    -0.66600
Ni33       Ni  0.91637926  0.14025130  0.62842920     1.34900
C34         C  0.99307766  0.20902566  0.51494422     0.84500
O35         O  0.88033764  0.12912595  0.54060902    -0.79500
O36         O  0.89035013  0.10758207  0.59266442    -0.89800
C37         C  0.89515161  0.18896293  0.47400279     0.84100
O38         O  0.88521693  0.14835393  0.64118960    -0.68000
O39         O  0.98261551  0.26510430  0.52928290    -0.87300
C40         C  0.87523779  0.16323908  0.62346644     0.84900
C41         C  0.87648170  0.10624898  0.55964912     1.06500
H42         H  0.92602541  0.22145462  0.56202518     0.38300
O43         O  0.93549879  0.21147137  0.54972138    -1.10000
O44         O  0.98836134  0.20661600  0.55352607    -0.66600
Ni45       Ni  0.95984418  0.20831839  0.58999712     1.26300
O46         O  0.88352548  0.17418289  0.58772054    -0.66800
O47         O  0.98493825  0.25081510  0.59371467    -0.79100
C48         C  0.96837177  0.19077369  0.66739563     0.84300
O49         O  0.98120708  0.20366918  0.63426400    -0.66300
Ni50       Ni  0.95257795  0.23132560  0.49960784     1.27400
Ni51       Ni  0.90759098  0.17033289  0.54571444     1.26100
H52         H  0.94377595  0.15840860  0.56716459     0.38800
O53         O  0.88486558  0.39048898  0.00524968    -0.81100
O54         O  0.94634149  0.45027708  0.84494905    -0.65800
O55         O  0.88784493  0.39871363  0.92050189    -1.12400
C56         C  0.93854250  0.34434748  0.89945736     1.05800
O57         O  0.92872399  0.41119285  0.80577181    -0.79000
O58         O  0.89590594  0.35401060  0.82650399    -0.66600
Ni59       Ni  0.87879717  0.41522648  0.96678959     1.34900
C60         C  0.87413151  0.33896816  0.85010697     0.84500
O61         O  0.90161045  0.45175466  0.87895672    -0.79500
O62         O  0.87100368  0.44117091  0.93223724    -0.89800
C63         C  0.94626849  0.43865373  0.81104003     0.84100
O64         O  0.91805035  0.44703331  0.97942977    -0.68000
O65         O  0.94343333  0.35624358  0.86386913    -0.87300
C66         C  0.94283353  0.45798381  0.96096956     0.84900
C67         C  0.88264428  0.45511991  0.89887845     1.06500
H68         H  0.95117172  0.40902355  0.89865466     0.38300
O69         O  0.93166821  0.39895908  0.88632180    -1.10000
O70         O  0.87509093  0.34477612  0.88836937    -0.66600
Ni71       Ni  0.90486392  0.37324245  0.92611609     1.26300
O72         O  0.94504199  0.45016108  0.92483111    -0.66800
O73         O  0.92383087  0.34906572  0.92734528    -0.79100
C74         C  0.87838594  0.36336068  0.00444421     0.84300
O75         O  0.87932154  0.35081780  0.97117548    -0.66300
Ni76       Ni  0.93588274  0.38387553  0.83566471     1.27400
Ni77       Ni  0.91700350  0.42569922  0.88320861     1.26100
H78         H  0.86951966  0.38799719  0.90525916     0.38800
O79         O  0.10166679  0.50121637  0.50068288    -0.81100
O80         O  0.04009254  0.49094143  0.66258825    -0.65800
O81         O  0.09974490  0.50305909  0.58663138    -1.12400
C82         C  0.05392236  0.39829255  0.59893416     1.05800
O83         O  0.05608626  0.46768565  0.70192869    -0.79000
O84         O  0.09547821  0.45223515  0.67581974    -0.66600
Ni85       Ni  0.10884018  0.53051204  0.54276122     1.34900
C86         C  0.11657006  0.45885797  0.65102241     0.84500
O87         O  0.08391315  0.53971255  0.63075942    -0.79500
O88         O  0.11744084  0.56245627  0.58138120    -0.89800
C89         C  0.03942597  0.47860454  0.69617784     0.84100
O90         O  0.06988077  0.52443487  0.53249129    -0.68000
O91         O  0.05089374  0.40403374  0.63620868    -0.87300
C92         C  0.04470120  0.50814147  0.54908273     0.84900
C93         C  0.10442747  0.56312256  0.61436175     1.06500
H94         H  0.03685928  0.44749529  0.60677680     0.38300
O95         O  0.05653024  0.45732948  0.61864220    -1.10000
O96         O  0.11394755  0.46150627  0.61242413    -0.66600
Ni97       Ni  0.08340545  0.46113820  0.57716568     1.26300
O98         O  0.04192803  0.49470140  0.58274308    -0.66800
O99         O  0.06540247  0.41851870  0.57129070    -0.79100
C100        C  0.10721398  0.48001606  0.49892205     0.84300
O101        O  0.10845607  0.46689858  0.53127390    -0.66300
Ni102      Ni  0.05413557  0.43671619  0.66751866     1.27400
Ni103      Ni  0.06996973  0.49835946  0.62427383     1.26100
H104        H  0.11790922  0.51033570  0.60212481     0.38800
O105        O  0.05122556  0.22621727  0.83022195    -0.81100
O106        O  0.10921672  0.29188488  0.98841914    -0.65800
O107        O  0.05777627  0.23092982  0.91549483    -1.12400
C108        C  0.00331773  0.28144485  0.92696490     1.05800
O109        O  0.07037281  0.27761900  0.02796495    -0.79000
O110        O  0.01349288  0.24099781  0.00558896    -0.66600
Ni111      Ni  0.07397596  0.21955803  0.87144830     1.34900
C112        C  0.99817722  0.21886602  0.98242524     0.84500
O113        O  0.11028421  0.24542892  0.95839581    -0.79500
O114        O  0.09758929  0.21108072  0.90936551    -0.89800
C115        C  0.09805527  0.29381261  0.02176897     0.84100
O116        O  0.10743544  0.25772907  0.85818281    -0.68000
O117        O  0.01358089  0.28651831  0.96359640    -0.87300
C118        C  0.11799171  0.28342270  0.87379109     0.84900
C119        C  0.11169512  0.22406674  0.94214030     1.06500
H120        H  0.06860799  0.29530725  0.93206840     0.38300
O121        O  0.05829270  0.27616633  0.94537984    -1.10000
O122        O  0.00361812  0.21957273  0.94406442    -0.66600
Ni123      Ni  0.03309261  0.24816137  0.90605614     1.26300
O124        O  0.10947664  0.28763216  0.90847249    -0.66800
O125        O  0.00952074  0.26723013  0.90024525    -0.79100
C126        C  0.02432610  0.22042137  0.82935104     0.84300
O127        O  0.01140868  0.22151774  0.86195894    -0.66300
Ni128      Ni  0.04208199  0.28144072  0.99448699     1.27400
Ni129      Ni  0.08468873  0.26128489  0.95144385     1.26100
H130        H  0.04671767  0.21328517  0.93193943     0.38800
O131        O  0.15864447  0.44404605  0.33883579    -0.81100
O132        O  0.15110782  0.38063727  0.18143942    -0.65800
O133        O  0.16045133  0.44147795  0.25351352    -1.12400
C134        C  0.05647087  0.39364421  0.23787996     1.05800
O135        O  0.12840279  0.39588656  0.13966411    -0.79000
O136        O  0.11369671  0.43676908  0.16306068    -0.66600
Ni137      Ni  0.18830895  0.45294553  0.29713711     1.34900
C138        C  0.11674500  0.45675504  0.18814435     0.84500
O139        O  0.19887667  0.42656585  0.21254507    -0.79500
O140        O  0.22018180  0.46351642  0.25795802    -0.89800
C141        C  0.13897112  0.37907799  0.14732629     0.84100
O142        O  0.18551287  0.41530498  0.30874725    -0.68000
O143        O  0.06368628  0.39281623  0.20054687    -0.87300
C144        C  0.16888093  0.38934196  0.29454263     0.84900
C145        C  0.22140554  0.44973087  0.22619398     1.06500
H146        H  0.10617663  0.37715945  0.23326461     0.38300
O147        O  0.11597508  0.39691753  0.22173996    -1.10000
O148        O  0.11740603  0.45322619  0.22685994    -0.66600
Ni149      Ni  0.11838189  0.42360687  0.26260716     1.26300
O150        O  0.15410356  0.38490758  0.26155555    -0.66800
O151        O  0.07559638  0.40389493  0.26717374    -0.79100
C152        C  0.13691327  0.44871798  0.34081299     0.84300
O153        O  0.12283482  0.44852743  0.30855533    -0.66300
Ni154      Ni  0.09691816  0.39512492  0.17161162     1.27400
Ni155      Ni  0.15723070  0.41130160  0.21783747     1.26100
H156        H  0.16691559  0.45907548  0.23702869     0.38800
O157        O  0.13182621  0.74446158  0.63617865    -0.81100
O158        O  0.12466891  0.68524304  0.80502353    -0.65800
O159        O  0.11874227  0.73130695  0.71853955    -1.12400
C160        C  0.22434109  0.78822510  0.73004321     1.05800
O161        O  0.15823889  0.72592223  0.83785063    -0.79000
O162        O  0.18254233  0.78197716  0.80985087    -0.66600
Ni163      Ni  0.09924651  0.71482626  0.66803866     1.34900
C164        C  0.16769759  0.79199933  0.79193819     0.84500
O165        O  0.07757284  0.68225285  0.76225245    -0.79500
O166        O  0.06510531  0.68491868  0.69677293    -0.89800
C167        C  0.13823329  0.69852484  0.83793758     0.84100
O168        O  0.11357024  0.68817381  0.65929386    -0.68000
O169        O  0.22225759  0.77403439  0.76301215    -0.87300
C170        C  0.11933044  0.67287695  0.68374507     0.84900
C171        C  0.05816493  0.67519599  0.73352209     1.06500
H172        H  0.17057151  0.72137631  0.73750952     0.38300
O173        O  0.16300638  0.73209908  0.75265944    -1.10000
O174        O  0.15619673  0.78266133  0.75680135    -0.66600
Ni175      Ni  0.16018493  0.75850877  0.71521907     1.26300
O176        O  0.12147332  0.67736038  0.72257638    -0.66800
O177        O  0.20182087  0.78517074  0.71071549    -0.79100
C178        C  0.14263813  0.77191227  0.64348763     0.84300
O179        O  0.15479478  0.78268657  0.67744709    -0.66300
Ni180      Ni  0.18892207  0.74938362  0.79858044     1.27400
Ni181      Ni  0.12064022  0.70652223  0.75936715     1.26100
H182        H  0.10906478  0.74120933  0.73042551     0.38800
O183        O  0.06965273  0.80812354  0.53157625    -0.81100
O184        O  0.01461097  0.80456861  0.36357146    -0.65800
O185        O  0.05884017  0.79602784  0.44938668    -1.12400
C186        C  0.11428296  0.90178020  0.44592171     1.05800
O187        O  0.05538543  0.83970282  0.33279313    -0.79000
O188        O  0.11097003  0.86426444  0.36297754    -0.66600
Ni189      Ni  0.04127706  0.77571509  0.49858686     1.34900
C190        C  0.12041154  0.84827035  0.37871584     0.84500
O191        O  0.01023692  0.75620606  0.40349140    -0.79500
O192        O  0.01256991  0.74205978  0.46799513    -0.89800
C193        C  0.02840704  0.81883317  0.33151327     0.84100
O194        O  0.01374926  0.78910850  0.50696371    -0.68000
O195        O  0.10035157  0.90084444  0.41311315    -0.87300
C196        C  0.99913064  0.79573723  0.48232016     0.84900
C197        C  0.00280712  0.73603322  0.43114604     1.06500
H198        H  0.04923928  0.84805537  0.43410507     0.38300
O199        O  0.06020024  0.84118808  0.41810645    -1.10000
O200        O  0.11058150  0.83464707  0.41263250    -0.66600
Ni201      Ni  0.08613138  0.83725835  0.45512751     1.26300
O202        O  0.00499361  0.79935445  0.44410881    -0.66800
O203        O  0.11268646  0.87882627  0.46193313    -0.79100
C204        C  0.09734735  0.81871576  0.52723138     0.84300
O205        O  0.10945987  0.83053827  0.49350260    -0.66300
Ni206      Ni  0.07744030  0.86899912  0.37451077     1.27400
Ni207      Ni  0.03485635  0.79915403  0.40864417     1.26100
H208        H  0.06883773  0.78650468  0.43728036     0.38800
O209        O  0.85873965  0.60640201  0.86479844    -0.81100
O210        O  0.86280247  0.55417814  0.69883521    -0.65800
O211        O  0.87041407  0.60767140  0.78334336    -1.12400
C212        C  0.76453788  0.55896683  0.77184927     1.05800
O213        O  0.83141507  0.56338604  0.66504592    -0.79000
O214        O  0.80843267  0.59588144  0.69222956    -0.66600
Ni215      Ni  0.89193909  0.61239759  0.83243756     1.34900
C216        C  0.82289503  0.62048722  0.71084316     0.84500
O217        O  0.91029453  0.59789944  0.73969607    -0.79500
O218        O  0.92638024  0.61904042  0.80202922    -0.89800
C219        C  0.85096657  0.55554826  0.66530669     0.84100
O220        O  0.88111172  0.57220919  0.84206728    -0.68000
O221        O  0.76693748  0.54823571  0.73779049    -0.87300
C222        C  0.87206020  0.54960894  0.81918030     0.84900
C223        C  0.93104496  0.61290360  0.76577488     1.06500
H224        H  0.81740996  0.54569590  0.76462279     0.38300
O225        O  0.82548953  0.56424641  0.74991206    -1.10000
O226        O  0.83251272  0.62225770  0.74732881    -0.66600
Ni227      Ni  0.82875879  0.59330935  0.78801444     1.26300
O228        O  0.86588675  0.55017710  0.78128097    -0.66800
O229        O  0.78681189  0.57758215  0.79287405    -0.79100
C230        C  0.84803864  0.62336658  0.86041083     0.84300
O231        O  0.83455169  0.62229450  0.82769486    -0.66300
Ni232      Ni  0.80044667  0.55642732  0.70331900     1.27400
Ni233      Ni  0.86758409  0.58016255  0.74344246     1.26100
H234        H  0.87975518  0.62696037  0.77041101     0.38800
O235        O  0.92346415  0.72766041  0.97552725    -0.81100
O236        O  0.97927036  0.78863970  0.14358719    -0.65800
O237        O  0.93688864  0.73376096  0.05855203    -1.12400
C238        C  0.87810324  0.78038357  0.05821177     1.05800
O239        O  0.93794769  0.78195174  0.17289749    -0.79000
O240        O  0.88220247  0.74905176  0.14221119    -0.66600
Ni241      Ni  0.95647206  0.73418392  0.00959800     1.34900
C242        C  0.87389488  0.72327396  0.12817845     0.84500
O243        O  0.98399452  0.74368674  0.10659382    -0.79500
O244        O  0.99067922  0.73923048  0.03966278    -0.89800
C245        C  0.96509167  0.78890152  0.17529473     0.84100
O246        O  0.97396861  0.77574400  0.00079444    -0.68000
O247        O  0.89263721  0.79511569  0.08982019    -0.87300
C248        C  0.99270895  0.79564750  0.02447197     0.84900
C249        C  0.99538603  0.73611927  0.07738917     1.06500
H250        H  0.94458702  0.79505800  0.07046997     0.38300
O251        O  0.93398605  0.77755649  0.08732617    -1.10000
O252        O  0.88531295  0.71935509  0.09604174    -0.66600
Ni253      Ni  0.90831762  0.74578247  0.05221213     1.26300
O254        O  0.99076411  0.79186389  0.06330691    -0.66800
O255        O  0.87999606  0.75858794  0.04444450    -0.79100
C256        C  0.89620569  0.71078517  0.98409708     0.84300
O257        O  0.88523461  0.71359923  0.01705475    -0.66300
Ni258      Ni  0.91569425  0.78771678  0.12992658     1.27400
Ni259      Ni  0.95985051  0.76199983  0.09902253     1.26100
H260        H  0.92784872  0.71409162  0.07029812     0.38800
O261        O  0.05811767  0.59950803  0.20241653    -0.81100
O262        O  0.11197169  0.65662931  0.03406470    -0.65800
O263        O  0.05879613  0.61144406  0.11990653    -1.12400
C264        C  0.10569418  0.55259229  0.11152666     1.05800
O265        O  0.10569974  0.61630599  0.00175126    -0.79000
O266        O  0.07139007  0.56060254  0.02988713    -0.66600
Ni267      Ni  0.05512646  0.62847069  0.16945582     1.34900
C268        C  0.04655850  0.55059746  0.04794726     0.84500
O269        O  0.06834692  0.66084186  0.07538086    -0.79500
O270        O  0.05082817  0.65783622  0.13956099    -0.89800
C271        C  0.11239135  0.64349570  0.00122050     0.84100
O272        O  0.09617857  0.65549623  0.17866096    -0.68000
O273        O  0.11779592  0.56620290  0.07816211    -0.87300
C274        C  0.11812543  0.66935287  0.15484116     0.84900
C275        C  0.05529909  0.66794087  0.10293143     1.06500
H276        H  0.12045241  0.62028404  0.10246878     0.38300
O277        O  0.10215588  0.60966135  0.08713670    -1.10000
O278        O  0.04439930  0.55929125  0.08349928    -0.66600
Ni279      Ni  0.07252279  0.58391287  0.12483811     1.26300
O280        O  0.11636850  0.66440626  0.11620259    -0.66800
O281        O  0.08696494  0.55688002  0.13075025    -0.79100
C282        C  0.04124376  0.57193240  0.19622445     0.84300
O283        O  0.04252457  0.56047009  0.16282174    -0.66300
Ni284      Ni  0.11090374  0.59195689  0.04199243     1.27400
Ni285      Ni  0.08609846  0.63572894  0.07929277     1.26100
H286        H  0.03933407  0.60157705  0.10753733     0.38800
O287        O  0.93039956  0.53402868  0.30433224    -0.81100
O288        O  0.87925081  0.54080332  0.47097064    -0.65800
O289        O  0.93179736  0.54703182  0.38629184    -1.12400
C290        C  0.88194954  0.44142885  0.39734954     1.05800
O291        O  0.88631572  0.50774688  0.50462683    -0.79000
O292        O  0.91744742  0.48292398  0.47703613    -0.66600
Ni293      Ni  0.93564762  0.56724042  0.33637789     1.34900
C294        C  0.94238607  0.49738609  0.45913483     0.84500
O295        O  0.92302717  0.58778286  0.42949245    -0.79500
O296        O  0.94182346  0.60175610  0.36587169    -0.89800
C297        C  0.87941711  0.52801777  0.50412525     0.84100
O298        O  0.89496836  0.55458777  0.32779243    -0.68000
O299        O  0.86981990  0.44353922  0.43021868    -0.87300
C300        C  0.87295645  0.54632179  0.35136107     0.84900
C301        C  0.93713725  0.60781627  0.40216623     1.06500
H302        H  0.86968439  0.49498241  0.40454105     0.38300
O303        O  0.88798751  0.50265380  0.41980934    -1.10000
O304        O  0.94497183  0.50900064  0.42398828    -0.66600
Ni305      Ni  0.91706661  0.50552704  0.38232691     1.26300
O306        O  0.87457130  0.54298430  0.38986166    -0.66800
O307        O  0.90154761  0.46384945  0.37783757    -0.79100
C308        C  0.94712785  0.52322985  0.31000494     0.84300
O309        O  0.94639198  0.51099370  0.34373088    -0.66300
Ni310      Ni  0.87870424  0.47685419  0.46566132     1.27400
Ni311      Ni  0.90480247  0.54489306  0.42651956     1.26100
H312        H  0.95128666  0.55647297  0.39869247     0.38800
O313        O  0.71719950  0.55975849  0.16968698    -0.81100
O314        O  0.77566959  0.62523328  0.32544225    -0.65800
O315        O  0.72371577  0.56347196  0.25469599    -1.12400
C316        C  0.66833557  0.61236515  0.26792825     1.05800
O317        O  0.73792460  0.61148434  0.36700718    -0.79000
O318        O  0.68156509  0.57239375  0.34591531    -0.66600
Ni319      Ni  0.73997019  0.55266260  0.21020702     1.34900
C320        C  0.66606923  0.55028560  0.32301594     0.84500
O321        O  0.77687314  0.57889072  0.29616332    -0.79500
O322        O  0.76327564  0.54384009  0.24796336    -0.89800
C323        C  0.76534161  0.62780043  0.35904418     0.84100
O324        O  0.77377320  0.59088112  0.19706123    -0.68000
O325        O  0.67792106  0.61648498  0.30485638    -0.87300
C326        C  0.78375022  0.61659227  0.21243369     0.84900
C327        C  0.77769120  0.55706855  0.28042271     1.06500
H328        H  0.73370573  0.62764490  0.27146396     0.38300
O329        O  0.72386920  0.60848086  0.28475168    -1.10000
O330        O  0.66971797  0.55140281  0.28409303    -0.66600
Ni331      Ni  0.69858427  0.58015089  0.24575687     1.26300
O332        O  0.77434616  0.62062219  0.24638761    -0.66800
O333        O  0.67477278  0.59889050  0.24034619    -0.79100
C334        C  0.68987496  0.55255185  0.16928138     0.84300
O335        O  0.67685468  0.55324218  0.20201708    -0.66300
Ni336      Ni  0.70798477  0.61320735  0.33451915     1.27400
Ni337      Ni  0.75074475  0.59418787  0.28985987     1.26100
H338        H  0.71307929  0.54583995  0.27130060     0.38800
O339        O  0.83085336  0.78499946  0.67016043    -0.81100
O340        O  0.82337789  0.71847752  0.51340844    -0.65800
O341        O  0.83284493  0.77981257  0.58491920    -1.12400
C342        C  0.72812142  0.73010857  0.57007858     1.05800
O343        O  0.79983009  0.73291187  0.47214872    -0.79000
O344        O  0.78295025  0.77199285  0.49368322    -0.66600
Ni345      Ni  0.86035217  0.79131061  0.62929169     1.34900
C346        C  0.78866506  0.79338768  0.51752006     0.84500
O347        O  0.87105383  0.76462395  0.54339184    -0.79500
O348        O  0.89264683  0.79929716  0.59195023    -0.89800
C349        C  0.81058032  0.71628336  0.47970779     0.84100
O350        O  0.85512063  0.75317585  0.64348352    -0.68000
O351        O  0.73399132  0.72741194  0.53279219    -0.87300
C352        C  0.83957236  0.72745264  0.62809455     0.84900
C353        C  0.89400941  0.78561871  0.56020158     1.06500
H354        H  0.77870543  0.71527816  0.56653781     0.38300
O355        O  0.78810561  0.73469265  0.55396125    -1.10000
O356        O  0.79016140  0.79124805  0.55645290    -0.66600
Ni357      Ni  0.79064679  0.76215545  0.59367217     1.26300
O358        O  0.82698958  0.72318751  0.59321342    -0.66800
O359        O  0.74787076  0.74232317  0.59837207    -0.79100
C360        C  0.80885332  0.78939429  0.67091882     0.84300
O361        O  0.79489299  0.78813688  0.63815979    -0.66300
Ni362      Ni  0.76782303  0.73089822  0.50393790     1.27400
Ni363      Ni  0.82948933  0.74932940  0.54941878     1.26100
H364        H  0.83954550  0.79739542  0.56832253     0.38800
O365        O  0.77634798  0.83907161  0.83298162    -0.81100
O366        O  0.71083999  0.83244643  0.98989205    -0.65800
O367        O  0.77188134  0.84142258  0.91827542    -1.12400
C368        C  0.72361289  0.73667300  0.93436403     1.05800
O369        O  0.72553958  0.80926698  0.03133234    -0.79000
O370        O  0.76472817  0.79263568  0.00972015    -0.66600
Ni371      Ni  0.78350330  0.86897513  0.87401090     1.34900
C372        C  0.78569016  0.79736678  0.98570051     0.84500
O373        O  0.75671174  0.87985609  0.95868841    -0.79500
O374        O  0.79234214  0.90151149  0.91170922    -0.89800
C375        C  0.70903029  0.82017588  0.02393141     0.84100
O376        O  0.74554988  0.86457309  0.86081698    -0.68000
O377        O  0.72053392  0.74356058  0.97099909    -0.87300
C378        C  0.71982677  0.84885815  0.87603309     0.84900
C379        C  0.77826152  0.90293485  0.94293656     1.06500
H380        H  0.70751213  0.78725575  0.93704524     0.38300
O381        O  0.72699170  0.79684442  0.94950278    -1.10000
O382        O  0.78349728  0.79888131  0.94685154    -0.66600
Ni383      Ni  0.75438407  0.79916602  0.90980568     1.26300
O384        O  0.71535155  0.83517097  0.90992035    -0.66800
O385        O  0.73528911  0.75616409  0.90566119    -0.79100
C386        C  0.78165734  0.81764401  0.83294453     0.84300
O387        O  0.78041459  0.80361689  0.86559776    -0.66300
Ni388      Ni  0.72359950  0.77721573  0.99965306     1.27400
Ni389      Ni  0.74155976  0.83824600  0.95366519     1.26100
H390        H  0.78946322  0.84818911  0.93494007     0.38800
O391        O  0.55426328  0.72529288  0.33765551    -0.81100
O392        O  0.61893474  0.78486955  0.17968518    -0.65800
O393        O  0.55877762  0.73209690  0.25214650    -1.12400
C394        C  0.60881275  0.67830854  0.23647895     1.05800
O395        O  0.60593913  0.74721374  0.13784689    -0.79000
O396        O  0.56608114  0.69130590  0.16076707    -0.66600
Ni397      Ni  0.54721760  0.74786306  0.29669899     1.34900
C398        C  0.54549899  0.67447866  0.18519066     0.84500
O399        O  0.57242666  0.78498128  0.21046865    -0.79500
O400        O  0.53804794  0.77121474  0.25924523    -0.89800
C401        C  0.62172532  0.77471491  0.14596811     0.84100
O402        O  0.58534002  0.78133653  0.31021388    -0.68000
O403        O  0.61051084  0.68631023  0.19903367    -0.87300
C404        C  0.61086204  0.79178785  0.29416603     0.84900
C405        C  0.55088977  0.78597370  0.22695165     1.06500
H406        H  0.62366341  0.74408535  0.23246875     0.38300
O407        O  0.60409723  0.73363058  0.22029554    -1.10000
O408        O  0.54841253  0.67825191  0.22395535    -0.66600
Ni409      Ni  0.57731752  0.70849146  0.26065799     1.26300
O410        O  0.61494894  0.78370807  0.25916377    -0.66800
O411        O  0.59751835  0.68623680  0.26524079    -0.79100
C412        C  0.55020698  0.69903598  0.33785659     0.84300
O413        O  0.55207162  0.68643393  0.30542850    -0.66300
Ni414      Ni  0.60741043  0.71696014  0.17017376     1.27400
Ni415      Ni  0.58858680  0.75955497  0.21602842     1.26100
H416        H  0.54106768  0.72070686  0.23589163     0.38800
O417        O  0.49949250  0.61768084  0.49701935    -0.81100
O418        O  0.50085760  0.55806422  0.66063104    -0.65800
O419        O  0.49647930  0.61013202  0.58250361    -1.12400
C420        C  0.60168455  0.65946411  0.60023190     1.05800
O421        O  0.52522516  0.59773027  0.69839173    -0.79000
O422        O  0.54970526  0.65421140  0.67415974    -0.66600
Ni423      Ni  0.46972610  0.59393786  0.53687544     1.34900
C424        C  0.54505612  0.66987097  0.64886010     0.84500
O425        O  0.45524554  0.55898710  0.62700552    -0.79500
O426        O  0.43629842  0.56888332  0.57186441    -0.89800
C427        C  0.51348455  0.56993661  0.69410124     0.84100
O428        O  0.47668574  0.56213052  0.52408820    -0.68000
O429        O  0.59472658  0.65037667  0.63713192    -0.87300
C430        C  0.48919690  0.55013067  0.54310053     0.84900
C431        C  0.43330232  0.55579683  0.60605475     1.06500
H432        H  0.54723231  0.59607956  0.60514061     0.38300
O433        O  0.53902578  0.60749682  0.61664041    -1.10000
O434        O  0.54129571  0.66398163  0.61057367    -0.66600
Ni435      Ni  0.53923704  0.63290154  0.57516569     1.26300
O436        O  0.49808561  0.55649514  0.58012787    -0.66800
O437        O  0.58242620  0.65424431  0.57181356    -0.79100
C438        C  0.52194326  0.64373170  0.49763747     0.84300
O439        O  0.53751870  0.65539739  0.52973257    -0.66300
Ni440      Ni  0.55940064  0.62387802  0.66662896     1.27400
Ni441      Ni  0.49718272  0.58286771  0.62117248     1.26100
H442        H  0.49042389  0.62225032  0.59734088     0.38800
O443        O  0.60609478  0.50746722  0.00608433    -0.81100
O444        O  0.55165328  0.51649888  0.84689164    -0.65800
O445        O  0.60009529  0.50375270  0.92096655    -1.12400
C446        C  0.66088302  0.60865878  0.90701243     1.05800
O447        O  0.59039097  0.53942599  0.80658810    -0.79000
O448        O  0.64600490  0.55596143  0.82967061    -0.66600
Ni449      Ni  0.58219062  0.47752517  0.96607093     1.34900
C450        C  0.66004227  0.54720324  0.85200472     0.84500
O451        O  0.54669382  0.46763312  0.87890639    -0.79500
O452        O  0.55745954  0.44530360  0.92897310    -0.89800
C453        C  0.56283754  0.52850945  0.81293080     0.84100
O454        O  0.55011102  0.48467151  0.97768433    -0.68000
O455        O  0.64999014  0.60367741  0.87075555    -0.87300
C456        C  0.54126600  0.50087772  0.96085603     0.84900
C457        C  0.54353709  0.44432255  0.89617469     1.06500
H458        H  0.59438202  0.55990522  0.90285835     0.38300
O459        O  0.60338981  0.54984397  0.88958475    -1.10000
O460        O  0.65527984  0.54307924  0.89063147    -0.66600
Ni461      Ni  0.62759552  0.54540368  0.92901850     1.26300
O462        O  0.55127609  0.51327372  0.92646627    -0.66800
O463        O  0.65412724  0.58801085  0.93365929    -0.79100
C464        C  0.63398454  0.52583146  0.00658842     0.84300
O465        O  0.64775888  0.53866845  0.97364986    -0.66300
Ni466      Ni  0.61998384  0.57070601  0.84026263     1.27400
Ni467      Ni  0.57472216  0.50891813  0.88443529     1.26100
H468        H  0.60988231  0.49549785  0.90514297     0.38800
O469        O  0.47316486  0.41605290  0.30332167    -0.81100
O470        O  0.45734709  0.35283647  0.46634538    -0.65800
O471        O  0.45415096  0.40070432  0.38060746    -1.12400
C472        C  0.55916982  0.45568066  0.39539693     1.05800
O473        O  0.49151131  0.39236102  0.50094332    -0.79000
O474        O  0.51786202  0.44903686  0.47516220    -0.66600
Ni475      Ni  0.43820647  0.38503910  0.32852014     1.34900
C476        C  0.50216051  0.45879431  0.45928371     0.84500
O477        O  0.41163011  0.35118318  0.42046494    -0.79500
O478        O  0.40260061  0.35378168  0.35312802    -0.89800
C479        C  0.47073921  0.36528376  0.49971231     0.84100
O480        O  0.45385234  0.35940534  0.32114322    -0.68000
O481        O  0.55657668  0.43988405  0.42688734    -0.87300
C482        C  0.45691676  0.34263846  0.34611795     0.84900
C483        C  0.39373466  0.34456137  0.38962869     1.06500
H484        H  0.50494565  0.39047357  0.39976007     0.38300
O485        O  0.49736795  0.40074233  0.41594117    -1.10000
O486        O  0.49010054  0.45060297  0.42408468    -0.66600
Ni487      Ni  0.49556846  0.42888146  0.38032308     1.26300
O488        O  0.45635519  0.34596248  0.38488747    -0.66800
O489        O  0.53726724  0.45610402  0.37898737    -0.79100
C490        C  0.47895589  0.44247412  0.30917630     0.84300
O491        O  0.49058042  0.45444775  0.34305687    -0.66300
Ni492      Ni  0.52288228  0.41581250  0.46237407     1.27400
Ni493      Ni  0.45482506  0.37510507  0.42083682     1.26100
H494        H  0.44344382  0.40988957  0.39141726     0.38800
O495        O  0.39769560  0.47726098  0.19909966    -0.81100
O496        O  0.34209593  0.47303584  0.03106304    -0.65800
O497        O  0.38617966  0.46441132  0.11765952    -1.12400
C498        C  0.44797534  0.56972808  0.10753886     1.05800
O499        O  0.38303669  0.50602741  0.99797593    -0.79000
O500        O  0.43840712  0.52646754  0.02689913    -0.66600
Ni501      Ni  0.36835721  0.44503124  0.16745924     1.34900
C502        C  0.44811414  0.51169016  0.04567212     0.84500
O503        O  0.33611420  0.42482234  0.07332174    -0.79500
O504        O  0.33821442  0.41154374  0.13830776    -0.89800
C505        C  0.35569535  0.48583748  0.99813830     0.84100
O506        O  0.34304021  0.46065861  0.17558133    -0.68000
O507        O  0.43462291  0.56844096  0.07393812    -0.87300
C508        C  0.32929779  0.46829020  0.15120326     0.84900
C509        C  0.32807089  0.40506461  0.10173715     1.06500
H510        H  0.37969544  0.51828433  0.09872235     0.38300
O511        O  0.38980133  0.50995052  0.08379626    -1.10000
O512        O  0.43921644  0.50107622  0.08136498    -0.66600
Ni513      Ni  0.41497383  0.50550727  0.12230811     1.26300
O514        O  0.33411674  0.47068141  0.11255480    -0.66800
O515        O  0.44291723  0.54674581  0.12754616    -0.79100
C516        C  0.42459725  0.48481015  0.19430560     0.84300
O517        O  0.43769052  0.49822664  0.16184308    -0.66300
Ni518      Ni  0.40801049  0.53579015  0.03807839     1.27400
Ni519      Ni  0.36244036  0.46781715  0.07658758     1.26100
H520        H  0.39539016  0.45405047  0.10585272     0.38800
O521        O  0.19671172  0.27434590  0.52813995    -0.81100
O522        O  0.19876589  0.22136152  0.36036371    -0.65800
O523        O  0.20681050  0.27412717  0.44598449    -1.12400
C524        C  0.10052394  0.22187508  0.44362544     1.05800
O525        O  0.16281355  0.22584650  0.32963801    -0.79000
O526        O  0.13894817  0.25750366  0.35987221    -0.66600
Ni527      Ni  0.22890996  0.27897879  0.49448441     1.34900
C528        C  0.15400536  0.28275944  0.37687986     0.84500
O529        O  0.24663976  0.26633362  0.39966872    -0.79500
O530        O  0.26265144  0.28461187  0.46331245    -0.89800
C531        C  0.18424090  0.22059196  0.32839221     0.84100
O532        O  0.21682572  0.23847813  0.50407059    -0.68000
O533        O  0.10153868  0.20982526  0.40989805    -0.87300
C534        C  0.20934109  0.21646762  0.48047942     0.84900
C535        C  0.26736151  0.27979238  0.42643019     1.06500
H536        H  0.15502992  0.21130675  0.43080555     0.38300
O537        O  0.16165546  0.22929374  0.41515463    -1.10000
O538        O  0.16698703  0.28606619  0.41115972    -0.66600
Ni539      Ni  0.16528638  0.25881268  0.45257125     1.26300
O540        O  0.20454203  0.21761261  0.44221876    -0.66800
O541        O  0.12363186  0.24270363  0.46035944    -0.79100
C542        C  0.18529074  0.29061542  0.52286971     0.84300
O543        O  0.17143640  0.28860089  0.49032369    -0.66300
Ni544      Ni  0.13366633  0.21888782  0.37147031     1.27400
Ni545      Ni  0.20381990  0.24694993  0.40556929     1.26100
H546        H  0.21555333  0.29345848  0.43324428     0.38800
O547        O  0.25817774  0.39686657  0.63598418    -0.81100
O548        O  0.31567902  0.45486677  0.80307516    -0.65800
O549        O  0.27200783  0.40023881  0.71802971    -1.12400
C550        C  0.21223769  0.44590903  0.72153520     1.05800
O551        O  0.27455697  0.44788339  0.83398996    -0.79000
O552        O  0.21877513  0.41422235  0.80518425    -0.66600
Ni553      Ni  0.28967495  0.39807498  0.66826395     1.34900
C554        C  0.21050955  0.38867104  0.79041017     0.84500
O555        O  0.32100768  0.41150374  0.76299700    -0.79500
O556        O  0.32169006  0.39774689  0.69745689    -0.89800
C557        C  0.30179746  0.45475011  0.83538136     0.84100
O558        O  0.31291958  0.43958016  0.65821771    -0.68000
O559        O  0.22664074  0.46016126  0.75356890    -0.87300
C560        C  0.32816335  0.46112197  0.68230097     0.84900
C561        C  0.33019176  0.40078487  0.73481562     1.06500
H562        H  0.27904879  0.46114690  0.73201589     0.38300
O563        O  0.26892304  0.44345905  0.74863004    -1.10000
O564        O  0.22045634  0.38511308  0.75657721    -0.66600
Ni565      Ni  0.24317290  0.41216296  0.71312808     1.26300
O566        O  0.32439720  0.45853069  0.72109541    -0.66800
O567        O  0.21470044  0.42475829  0.70668421    -0.79100
C568        C  0.23106894  0.37898687  0.64408721     0.84300
O569        O  0.21995143  0.38065649  0.67747483    -0.66300
Ni570      Ni  0.25110921  0.45322550  0.79227562     1.27400
Ni571      Ni  0.29558348  0.42844830  0.75800906     1.26100
H572        H  0.26302535  0.38082419  0.73055739     0.38800
O573        O  0.27202581  0.21164796  0.97038864    -0.81100
O574        O  0.21052787  0.20641719  0.13575853    -0.65800
O575        O  0.26755228  0.21995594  0.05384994    -1.12400
C576        C  0.22273328  0.11407316  0.05506662     1.05800
O577        O  0.21800605  0.17272677  0.16762472    -0.79000
O578        O  0.25251708  0.15153244  0.13918294    -0.66600
Ni579      Ni  0.27133432  0.24133468  0.00499459     1.34900
C580        C  0.27820735  0.16834148  0.12450894     0.84500
O581        O  0.25377612  0.25650882  0.09918612    -0.79500
O582        O  0.27201596  0.27310393  0.03600778    -0.89800
C583        C  0.21050680  0.19257054  0.16793818     0.84100
O584        O  0.23022648  0.22453875  0.99316493    -0.68000
O585        O  0.20794088  0.11366937  0.08667276    -0.87300
C586        C  0.20761629  0.21548608  0.01583006     0.84900
C587        C  0.26626564  0.27747681  0.07264461     1.06500
H588        H  0.20667989  0.16497184  0.06539002     0.38300
O589        O  0.22416477  0.17269434  0.08249007    -1.10000
O590        O  0.28245148  0.18285213  0.09132844    -0.66600
Ni591      Ni  0.25584264  0.17926969  0.04743551     1.26300
O592        O  0.20864113  0.21218326  0.05450598    -0.66800
O593        O  0.24339750  0.13814932  0.04014427    -0.79100
C594        C  0.28826076  0.20032225  0.97704165     0.84300
O595        O  0.28742389  0.18844410  0.01118183    -0.66300
Ni596      Ni  0.21371262  0.14451628  0.12557386     1.27400
Ni597      Ni  0.23823079  0.21416632  0.09265678     1.26100
H598        H  0.28658473  0.23013074  0.06752074     0.38800
O599        O  0.39675239  0.26611712  0.86664867    -0.81100
O600        O  0.44265204  0.32259208  0.69477009    -0.65800
O601        O  0.39384015  0.27728218  0.78447227    -1.12400
C602        C  0.44464659  0.22258307  0.77250159     1.05800
O603        O  0.43739661  0.28251498  0.66275114    -0.79000
O604        O  0.40645529  0.22692966  0.69307856    -0.66600
Ni605      Ni  0.39243531  0.29470760  0.83487852     1.34900
C606        C  0.38227464  0.21618922  0.71295744     0.84500
O607        O  0.39901542  0.32495269  0.73970609    -0.79500
O608        O  0.38770461  0.32424558  0.80649416    -0.89800
C609        C  0.44301528  0.30938581  0.66191006     0.84100
O610        O  0.43358673  0.32120291  0.84101042    -0.68000
O611        O  0.45542198  0.23597254  0.73848914    -0.87300
C612        C  0.45317172  0.33736848  0.81513981     0.84900
C613        C  0.38819584  0.33268712  0.76967393     1.06500
H614        H  0.45585508  0.28904472  0.76271867     0.38300
O615        O  0.43719207  0.27743175  0.74853459    -1.10000
O616        O  0.38053772  0.22532357  0.74836596    -0.66600
Ni617      Ni  0.40935600  0.25121882  0.78796442     1.26300
O618        O  0.44959998  0.33240506  0.77655029    -0.66800
O619        O  0.42563993  0.22583743  0.79259715    -0.79100
C620        C  0.37993997  0.23855142  0.86093775     0.84300
O621        O  0.38084624  0.22706318  0.82741739    -0.66300
Ni622      Ni  0.44559141  0.25990608  0.70270271     1.27400
Ni623      Ni  0.41895233  0.30170861  0.74190955     1.26100
H624        H  0.37380665  0.26656546  0.77389036     0.38800
O625        O  0.52890242  0.93777334  0.20008543    -0.81100
O626        O  0.52940903  0.88646609  0.02811224    -0.65800
O627        O  0.53941397  0.93847689  0.11628247    -1.12400
C628        C  0.43385105  0.89265296  0.10943124     1.05800
O629        O  0.49623370  0.89493348  0.99712604    -0.79000
O630        O  0.47498493  0.92825091  0.02820941    -0.66600
Ni631      Ni  0.56009995  0.94050119  0.16527221     1.34900
C632        C  0.49042344  0.95278952  0.04680885     0.84500
O633        O  0.57810510  0.92891888  0.06936122    -0.79500
O634        O  0.59329742  0.94479390  0.13395522    -0.89800
C635        C  0.51610003  0.88757427  0.99585366     0.84100
O636        O  0.54514929  0.89905897  0.17254510    -0.68000
O637        O  0.43481277  0.88097756  0.07540965    -0.87300
C638        C  0.53758012  0.87791400  0.14726564     0.84900
C639        C  0.59861544  0.94133466  0.09666377     1.06500
H640        H  0.48561272  0.87753968  0.09741107     0.38300
O641        O  0.49351706  0.89612338  0.08282375    -1.10000
O642        O  0.50212032  0.95440135  0.08175402    -0.66600
Ni643      Ni  0.49835133  0.92525625  0.12191942     1.26300
O644        O  0.53378159  0.88055236  0.10913316    -0.66800
O645        O  0.45698199  0.91111999  0.12885631    -0.79100
C646        C  0.51741014  0.95407655  0.19540339     0.84300
O647        O  0.50565377  0.95431725  0.16166655    -0.66300
Ni648      Ni  0.46691472  0.88861252  0.03815238     1.27400
Ni649      Ni  0.53541957  0.91167789  0.07428378     1.26100
H650        H  0.54932224  0.95819642  0.10464862     0.38800
O651        O  0.58612644  0.06228435  0.30559683    -0.81100
O652        O  0.64552338  0.11711380  0.47238663    -0.65800
O653        O  0.59908727  0.06361407  0.38769822    -1.12400
C654        C  0.54292705  0.11298340  0.39394672     1.05800
O655        O  0.60624883  0.11359334  0.50506105    -0.79000
O656        O  0.54999010  0.07927754  0.47751829    -0.66600
Ni657      Ni  0.61573816  0.06000505  0.33780539     1.34900
C658        C  0.53979721  0.05405825  0.46035784     0.84500
O659        O  0.64751558  0.07196518  0.43239544    -0.79500
O660        O  0.64555295  0.05616120  0.36713190    -0.89800
C661        C  0.63302960  0.11899954  0.50493546     0.84100
O662        O  0.64194249  0.10118524  0.32827100    -0.68000
O663        O  0.55678431  0.12541777  0.42707016    -0.87300
C664        C  0.65684207  0.12282827  0.35219157     0.84900
C665        C  0.65446144  0.05923421  0.40427163     1.06500
H666        H  0.60966498  0.12607580  0.40341476     0.38300
O667        O  0.59881038  0.10814362  0.41935794    -1.10000
O668        O  0.54840348  0.05117064  0.42520630    -0.66600
Ni669      Ni  0.57223443  0.07797330  0.38262842     1.26300
O670        O  0.65298592  0.12062986  0.39101530    -0.66800
O671        O  0.54583757  0.09298882  0.37600932    -0.79100
C672        C  0.55875932  0.04520361  0.31276723     0.84300
O673        O  0.54775958  0.04714059  0.34613245    -0.66300
Ni674      Ni  0.58193252  0.11834738  0.46410923     1.27400
Ni675      Ni  0.62382935  0.09103296  0.42789121     1.26100
H676        H  0.58904120  0.04414468  0.40012869     0.38800
O677        O  0.79992342  0.08004962  0.97069587    -0.81100
O678        O  0.79311898  0.02172362  0.13938376    -0.65800
O679        O  0.78648521  0.06711780  0.05329950    -1.12400
C680        C  0.89215423  0.12609948  0.06427218     1.05800
O681        O  0.82822792  0.06142457  0.17286583    -0.79000
O682        O  0.85041989  0.11749488  0.14530568    -0.66600
Ni683      Ni  0.76774022  0.04979571  0.00266991     1.34900
C684        C  0.83475009  0.12702651  0.12880969     0.84500
O685        O  0.74605623  0.01794327  0.09708613    -0.79500
O686        O  0.73376035  0.01916307  0.03125608    -0.89800
C687        C  0.80728019  0.03443040  0.17202811     0.84100
O688        O  0.78344555  0.02400919  0.99457368    -0.68000
O689        O  0.89068168  0.11160008  0.09665758    -0.87300
C690        C  0.78834113  0.00858394  0.02010437     0.84900
C691        C  0.72672613  0.00954760  0.06807429     1.06500
H692        H  0.83883420  0.05848974  0.07163171     0.38300
O693        O  0.83127654  0.06895175  0.08740397    -1.10000
O694        O  0.82319808  0.11857398  0.09323624    -0.66600
Ni695      Ni  0.82764952  0.09522822  0.05043813     1.26300
O696        O  0.79024571  0.01369214  0.05857458    -0.66800
O697        O  0.86914701  0.12294252  0.04615620    -0.79100
C698        C  0.81082908  0.10768809  0.97718930     0.84300
O699        O  0.82127362  0.11866344  0.01205264    -0.66300
Ni700      Ni  0.85792238  0.08594720  0.13272573     1.27400
Ni701      Ni  0.78895870  0.04289168  0.09429383     1.26100
H702        H  0.77619622  0.07654709  0.06475243     0.38800
O703        O  0.73850688  0.14054582  0.86279107    -0.81100
O704        O  0.67630168  0.13582980  0.69791668    -0.65800
O705        O  0.72264216  0.12711162  0.78120790    -1.12400
C706        C  0.78247746  0.23228163  0.76989758     1.05800
O707        O  0.71697044  0.16820094  0.66370321    -0.79000
O708        O  0.77344026  0.19167705  0.68945742    -0.66600
Ni709      Ni  0.70659691  0.10909069  0.83228645     1.34900
C710        C  0.78249711  0.17532992  0.70505366     0.84500
O711        O  0.67186337  0.08778828  0.73936590    -0.79500
O712        O  0.67413455  0.07592571  0.80508168    -0.89800
C713        C  0.68943952  0.14891957  0.66481568     0.84100
O714        O  0.68341931  0.12719516  0.84253761    -0.68000
O715        O  0.76691729  0.23100141  0.73883609    -0.87300
C716        C  0.66669269  0.13178550  0.81918408     0.84900
C717        C  0.66397360  0.06868064  0.76853446     1.06500
H718        H  0.71546888  0.18062030  0.76535076     0.38300
O719        O  0.72498812  0.17245410  0.74875635    -1.10000
O720        O  0.77343247  0.16260116  0.73964671    -0.66600
Ni721      Ni  0.75176975  0.16795190  0.78364262     1.26300
O722        O  0.66956805  0.13246473  0.78017413    -0.66800
O723        O  0.78031545  0.20930778  0.78692352    -0.79100
C724        C  0.76565397  0.15012900  0.85494676     0.84300
O725        O  0.77595073  0.16068432  0.81993297    -0.66300
Ni726      Ni  0.74143358  0.19842188  0.70289809     1.27400
Ni727      Ni  0.69765548  0.13050802  0.74213231     1.26100
H728        H  0.73111598  0.11622858  0.76875910     0.38800
O729        O  0.72474090  0.92980840  0.52961343    -0.81100
O730        O  0.77537867  0.98790303  0.36253849    -0.65800
O731        O  0.72352379  0.94085532  0.44764788    -1.12400
C732        C  0.77634437  0.88819998  0.44418171     1.05800
O733        O  0.77588453  0.95003963  0.33096327    -0.79000
O734        O  0.74163190  0.89389813  0.35828680    -0.66600
Ni735      Ni  0.71895827  0.95716322  0.49725496     1.34900
C736        C  0.71655229  0.88271292  0.37597301     0.84500
O737        O  0.72933482  0.98811294  0.40265293    -0.79500
O738        O  0.71213454  0.98478790  0.46741049    -0.89800
C739        C  0.77860690  0.97583384  0.33045368     0.84100
O740        O  0.75934706  0.98624197  0.50608040    -0.68000
O741        O  0.78795311  0.90103701  0.41011505    -0.87300
C742        C  0.78065294  0.00157219  0.48184755     0.84900
C743        C  0.71540264  0.99390752  0.43040844     1.06500
H744        H  0.78692942  0.95427410  0.43220996     0.38300
O745        O  0.76908593  0.94253129  0.41635123    -1.10000
O746        O  0.71322853  0.89003599  0.41184599    -0.66600
Ni747      Ni  0.73970007  0.91562658  0.45357839     1.26300
O748        O  0.77890202  0.99614605  0.44353909    -0.66800
O749        O  0.75614950  0.89086743  0.46138513    -0.79100
C750        C  0.70822419  0.90220246  0.52358620     0.84300
O751        O  0.70990853  0.89084338  0.49050287    -0.66300
Ni752      Ni  0.78051290  0.92593757  0.37248001     1.27400
Ni753      Ni  0.75005801  0.96588145  0.40724264     1.26100
H754        H  0.70395167  0.92982716  0.43503242     0.38800
O755        O  0.60516143  0.87338303  0.63966608    -0.81100
O756        O  0.54583324  0.87002616  0.80609682    -0.65800
O757        O  0.60189714  0.88261956  0.72255146    -1.12400
C758        C  0.55681757  0.77660319  0.72644763     1.05800
O759        O  0.55595762  0.83827454  0.83715219    -0.79000
O760        O  0.58896716  0.81574079  0.80842076    -0.66600
Ni761      Ni  0.60594149  0.90395600  0.67365899     1.34900
C762        C  0.61411146  0.83212659  0.79204939     0.84500
O763        O  0.58911725  0.92004207  0.76754340    -0.79500
O764        O  0.60811059  0.93636452  0.70445490    -0.89800
C765        C  0.54626252  0.85632848  0.83841122     0.84100
O766        O  0.56489059  0.88844729  0.66281742    -0.68000
O767        O  0.54299752  0.77693431  0.75867374    -0.87300
C768        C  0.54225170  0.87917869  0.68551603     0.84900
C769        C  0.60229184  0.94091837  0.74092144     1.06500
H770        H  0.54081351  0.82782254  0.73636763     0.38300
O771        O  0.55876029  0.83585099  0.75253352    -1.10000
O772        O  0.61718309  0.84578050  0.75854773    -0.66600
Ni773      Ni  0.58952309  0.84168982  0.71638130     1.26300
O774        O  0.54321595  0.87530452  0.72409763    -0.66800
O775        O  0.57652062  0.80047852  0.70964299    -0.79100
C776        C  0.62187265  0.86261561  0.64642777     0.84300
O777        O  0.62031682  0.84979732  0.67974194    -0.66300
Ni778      Ni  0.54991714  0.80873249  0.79649997     1.27400
Ni779      Ni  0.57312211  0.87747145  0.76197440     1.26100
H780        H  0.62104164  0.89262519  0.73595256     0.38800
O781        O  0.16375880  0.94912287  0.83506041    -0.81100
O782        O  0.17105326  0.89420147  0.99692153    -0.65800
O783        O  0.16157730  0.94362218  0.92084149    -1.12400
C784        C  0.26711127  0.99984924  0.93310751     1.05800
O785        O  0.19682995  0.93341633  0.03587322    -0.79000
O786        O  0.21563672  0.98947459  0.01058835    -0.66600
Ni787      Ni  0.13435873  0.92593996  0.87613206     1.34900
C788        C  0.20890967  0.00419798  0.98640748     0.84500
O789        O  0.12317837  0.89203581  0.96632659    -0.79500
O790        O  0.10194188  0.90138789  0.91308835    -0.89800
C791        C  0.18444177  0.90560072  0.03006086     0.84100
O792        O  0.14067495  0.89346410  0.86413833    -0.68000
O793        O  0.26209618  0.99048488  0.97010375    -0.87300
C794        C  0.15499623  0.88289360  0.88211240     0.84900
C795        C  0.10038982  0.88822247  0.94685612     1.06500
H796        H  0.21530315  0.93352052  0.93995791     0.38300
O797        O  0.20655359  0.94412839  0.95246852    -1.10000
O798        O  0.20477210  0.99855964  0.94799037    -0.66600
Ni799      Ni  0.20378492  0.96836900  0.91165898     1.26300
O800        O  0.16659459  0.89203179  0.91732476    -0.66800
O801        O  0.24665168  0.99212704  0.90581535    -0.79100
C802        C  0.18479899  0.97610489  0.83433924     0.84300
O803        O  0.19888665  0.98921367  0.86684271    -0.66300
Ni804      Ni  0.22849607  0.96165609  0.00128500     1.27400
Ni805      Ni  0.16497231  0.91777353  0.95875952     1.26100
H806        H  0.15477758  0.95496276  0.93609752     0.38800
O807        O  0.27204887  0.83897427  0.33984436    -0.81100
O808        O  0.21868851  0.84744631  0.18075515    -0.65800
O809        O  0.26875220  0.83670265  0.25442224    -1.12400
C810        C  0.32890914  0.93962260  0.23742902     1.05800
O811        O  0.25659774  0.87134174  0.13863228    -0.79000
O812        O  0.30750746  0.87637854  0.16577025    -0.66600
Ni813      Ni  0.25092628  0.80912097  0.29824045     1.34900
C814        C  0.32686417  0.87684708  0.18974416     0.84500
O815        O  0.21498439  0.79899960  0.21275823    -0.79500
O816        O  0.22874084  0.77693937  0.25954697    -0.89800
C817        C  0.22904544  0.85932464  0.14638697     0.84100
O818        O  0.21658616  0.81298794  0.30831730    -0.68000
O819        O  0.32305480  0.93072488  0.20023615    -0.87300
C820        C  0.20825613  0.83008888  0.29322468     0.84900
C821        C  0.21388081  0.77593886  0.22768571     1.06500
H822        H  0.26097585  0.89233967  0.23240746     0.38300
O823        O  0.27042697  0.88182587  0.22180465    -1.10000
O824        O  0.32504246  0.87949186  0.22852118    -0.66600
Ni825      Ni  0.29403253  0.87878881  0.26369363     1.26300
O826        O  0.21955281  0.84488949  0.26063288    -0.66800
O827        O  0.31789948  0.92171164  0.26800795    -0.79100
C828        C  0.29910219  0.85946672  0.34268111     0.84300
O829        O  0.31361992  0.87371847  0.31074581    -0.66300
Ni830      Ni  0.28918555  0.89970185  0.17183583     1.27400
Ni831      Ni  0.24257353  0.84068455  0.21782372     1.26100
H832        H  0.27967335  0.82974439  0.23849801     0.38800
O833        O  0.38618013  0.89383837  0.50310234    -0.81100
O834        O  0.44190069  0.95341189  0.66750101    -0.65800
O835        O  0.39150146  0.89615764  0.58906815    -1.12400
C836        C  0.33857550  0.94837466  0.60393033     1.05800
O837        O  0.40242423  0.93895325  0.70529061    -0.79000
O838        O  0.34649787  0.90421604  0.67930967    -0.66600
Ni839      Ni  0.40870333  0.88649974  0.54406785     1.34900
C840        C  0.33134929  0.88308837  0.65461822     0.84500
O841        O  0.44272298  0.90781972  0.63407816    -0.79500
O842        O  0.43257018  0.87733712  0.58061290    -0.89800
C843        C  0.43024936  0.95480741  0.70073371     0.84100
O844        O  0.44152831  0.92539707  0.53347971    -0.68000
O845        O  0.34804300  0.95141744  0.64085338    -0.87300
C846        C  0.45225533  0.95017137  0.55199661     0.84900
C847        C  0.44555098  0.88825417  0.61481223     1.06500
H848        H  0.40350177  0.96035465  0.61080233     0.38300
O849        O  0.39243224  0.94071057  0.62253004    -1.10000
O850        O  0.33719168  0.88522127  0.61631072    -0.66600
Ni851      Ni  0.36782556  0.91482679  0.58075911     1.26300
O852        O  0.44366469  0.95242973  0.58753217    -0.66800
O853        O  0.34522963  0.93517816  0.57613142    -0.79100
C854        C  0.35987144  0.88958530  0.50212229     0.84300
O855        O  0.34658675  0.89023962  0.53466567    -0.66300
Ni856      Ni  0.37548057  0.94475273  0.67163695     1.27400
Ni857      Ni  0.41780236  0.92456275  0.62799543     1.26100
H858        H  0.37967598  0.87780127  0.60378351     0.38800
O859        O  0.49274630  0.11290803  0.00459839    -0.81100
O860        O  0.49187275  0.05365673  0.84420244    -0.65800
O861        O  0.49852645  0.11186940  0.91941700    -1.12400
C862        C  0.39384863  0.06203428  0.89800703     1.05800
O863        O  0.46902342  0.06871750  0.80268627    -0.79000
O864        O  0.45124055  0.10717637  0.82527408    -0.66600
Ni865      Ni  0.52399778  0.12073329  0.96603722     1.34900
C866        C  0.45571841  0.12773591  0.85020369     0.84500
O867        O  0.53847891  0.09899072  0.87802074    -0.79500
O868        O  0.55795015  0.13000308  0.93133494    -0.89800
C869        C  0.47930657  0.05174038  0.81042932     0.84100
O870        O  0.51791997  0.08192477  0.97765224    -0.68000
O871        O  0.40150485  0.06129803  0.86100889    -0.87300
C872        C  0.50395062  0.05715078  0.95914374     0.84900
C873        C  0.56061347  0.11849332  0.89811093     1.06500
H874        H  0.44522005  0.04820360  0.89564376     0.38300
O875        O  0.45490958  0.06800047  0.88425830    -1.10000
O876        O  0.45668196  0.12443236  0.88891838    -0.66600
Ni877      Ni  0.45593174  0.09414890  0.92513093     1.26300
O878        O  0.49279766  0.05480922  0.92362362    -0.66800
O879        O  0.41270601  0.07423394  0.92746293    -0.79100
C880        C  0.47180722  0.11880225  0.00364852     0.84300
O881        O  0.45899946  0.11893670  0.97037302    -0.66300
Ni882      Ni  0.43612253  0.06577614  0.83334646     1.27400
Ni883      Ni  0.49658870  0.08301661  0.88194255     1.26100
H884        H  0.50601359  0.13025509  0.90444456     0.38800
O885        O  0.21907211  0.05928038  0.67220543    -0.81100
O886        O  0.28572692  0.11679548  0.51434077    -0.65800
O887        O  0.22413091  0.06641727  0.58698710    -1.12400
C888        C  0.27223159  0.00945564  0.57379158     1.05800
O889        O  0.27022261  0.07789299  0.47460059    -0.79000
O890        O  0.23193047  0.02197769  0.49653970    -0.66600
Ni891      Ni  0.21363039  0.08314078  0.63146947     1.34900
C892        C  0.20963626  0.00768429  0.51952690     0.84500
O893        O  0.23989479  0.11943722  0.54415130    -0.79500
O894        O  0.20657181  0.10815144  0.59424999    -0.89800
C895        C  0.28764702  0.10524700  0.48139915     0.84100
O896        O  0.25225486  0.11558214  0.64523637    -0.68000
O897        O  0.27659201  0.01903435  0.53691756    -0.87300
C898        C  0.27749874  0.12604510  0.62832944     0.84900
C899        C  0.21980538  0.12243508  0.56176289     1.06500
H900        H  0.28776263  0.07529548  0.56972492     0.38300
O901        O  0.26853526  0.06543855  0.55654517    -1.10000
O902        O  0.21088790  0.01204831  0.55822800    -0.66600
Ni903      Ni  0.24040807  0.04072618  0.59584230     1.26300
O904        O  0.28120883  0.11697602  0.59386125    -0.66800
O905        O  0.25855637  0.01616857  0.60080290    -0.79100
C906        C  0.21285861  0.03223733  0.67242619     0.84300
O907        O  0.21376049  0.01935556  0.63969895    -0.66300
Ni908      Ni  0.27278024  0.04867064  0.50710740     1.27400
Ni909      Ni  0.25465687  0.09276600  0.55088321     1.26100
H910        H  0.20633533  0.05583457  0.57063623     0.38800
O911        O  0.43645995  0.17113297  0.16368970    -0.81100
O912        O  0.37415847  0.15968401  0.32222147    -0.65800
O913        O  0.43525294  0.17264063  0.24857512    -1.12400
C914        C  0.39008649  0.06767552  0.25870519     1.05800
O915        O  0.39028907  0.13622177  0.36071744    -0.79000
O916        O  0.42931422  0.11982462  0.33654217    -0.66600
Ni917      Ni  0.44539698  0.20066828  0.20565841     1.34900
C918        C  0.45106522  0.12699070  0.31262114     0.84500
O919        O  0.41904611  0.20908644  0.29187863    -0.79500
O920        O  0.45502493  0.23203347  0.24531774    -0.89800
C921        C  0.37318045  0.14670248  0.35532756     0.84100
O922        O  0.40755334  0.19734715  0.19547181    -0.68000
O923        O  0.38527633  0.07248066  0.29559928    -0.87300
C924        C  0.38191113  0.18049347  0.21016042     0.84900
C925        C  0.44086262  0.23250003  0.27715081     1.06500
H926        H  0.37223854  0.11669841  0.26541275     0.38300
O927        O  0.39160921  0.12638601  0.27820316    -1.10000
O928        O  0.44954164  0.13129724  0.27432091    -0.66600
Ni929      Ni  0.41959471  0.13097858  0.23795300     1.26300
O930        O  0.37778668  0.16475629  0.24203543    -0.66800
O931        O  0.40238989  0.08829212  0.23149694    -0.79100
C932        C  0.44456681  0.15186896  0.16090750     0.84300
O933        O  0.44578927  0.13812707  0.19268692    -0.66300
Ni934      Ni  0.38826047  0.10512486  0.32676950     1.27400
Ni935      Ni  0.40480296  0.16752248  0.28478729     1.26100
H936        H  0.45303893  0.17974813  0.26489483     0.38800
C937        C  0.36133784  0.14352865  0.42832389    -0.06000
C938        C  0.35209027  0.14294868  0.38775411    -0.00100
C939        C  0.32202129  0.13395892  0.37915941    -0.08600
C940        C  0.30187707  0.12425186  0.41184701    -0.06000
C941        C  0.31082305  0.12259873  0.45171134    -0.00100
C942        C  0.34097942  0.13269499  0.46063281    -0.08500
C943        C  0.35121318  0.12957577  0.50312393     0.61800
H944        H  0.38443813  0.15061347  0.43405648     0.12500
H945        H  0.27852692  0.11606084  0.40625286     0.12500
C946        C  0.31063861  0.13238456  0.33571250     0.62100
F947        F  0.38137347  0.13968676  0.50431968    -0.23100
F948        F  0.33640163  0.10005238  0.51472205    -0.20400
F949        F  0.34545886  0.14583860  0.53119596    -0.20100
F950        F  0.31676880  0.11415255  0.31187873    -0.20200
F951        F  0.32407684  0.16051502  0.31883210    -0.20500
F952        F  0.28025255  0.12102872  0.33472556    -0.23200
C953        C  0.46249115  0.15236974  0.04625841    -0.06000
C954        C  0.46239142  0.12559140  0.04301927    -0.00100
C955        C  0.45503609  0.10682401  0.07772452    -0.08600
C956        C  0.44956595  0.11641821  0.11531550    -0.06000
C957        C  0.45054535  0.14376559  0.11933619    -0.00100
C958        C  0.45672701  0.16201817  0.08371322    -0.08500
C959        C  0.45786955  0.19178109  0.08445465     0.61800
H960        H  0.46785346  0.16606039  0.01905614     0.12500
H961        H  0.44454111  0.10241712  0.14208260     0.12500
C962        C  0.45239152  0.07649087  0.07503069     0.62100
F963        F  0.46733233  0.20665135  0.04741288    -0.23100
F964        F  0.47747961  0.20988406  0.11438601    -0.20400
F965        F  0.42985614  0.18742361  0.09208100    -0.20100
F966        F  0.48018148  0.07977074  0.07012956    -0.20200
F967        F  0.43458080  0.06086492  0.04208119    -0.20500
F968        F  0.43991156  0.05981750  0.11008865    -0.23200
C969        C  0.28495289  0.97080173  0.55510019    -0.06000
C970        C  0.28556237  0.99083710  0.58475980    -0.00100
C971        C  0.30326977  0.99642775  0.62020693    -0.08600
C972        C  0.31964995  0.98186316  0.62458068    -0.06000
C973        C  0.31959181  0.96202295  0.59483486    -0.00100
C974        C  0.30167190  0.95633764  0.55921830    -0.08500
C975        C  0.30010231  0.93549551  0.52540767     0.61800
H976        H  0.27172647  0.96720656  0.52776185     0.12500
H977        H  0.33336808  0.98665701  0.65160926     0.12500
C978        C  0.30612728  0.01875181  0.65259877     0.62100
F979        F  0.28012687  0.93217238  0.49491865    -0.23100
F980        F  0.29104999  0.90771540  0.54157425    -0.20400
F981        F  0.32765068  0.94658357  0.50726924    -0.20100
F982        F  0.27894452  0.00903330  0.67117266    -0.20200
F983        F  0.31569055  0.04614468  0.63463747    -0.20500
F984        F  0.32632453  0.02249910  0.68297988    -0.23200
C985        C  0.47006093  0.00538167  0.71712760    -0.06000
C986        C  0.44817677  0.97739765  0.73162036    -0.00100
C987        C  0.44137357  0.97333076  0.77402207    -0.08600
C988        C  0.45360293  0.99843023  0.79928679    -0.06000
C989        C  0.47244555  0.02680580  0.78346715    -0.00100
C990        C  0.48230261  0.03046123  0.74259748    -0.08500
C991        C  0.50525619  0.06065177  0.72623687     0.61800
H992        H  0.47595884  0.00797309  0.68504011     0.12500
H993        H  0.44694257  0.99626875  0.83115551     0.12500
C994        C  0.42129083  0.94299288  0.79277338     0.62100
F995        F  0.51385891  0.05883451  0.68668826    -0.23100
F996        F  0.53019584  0.07263270  0.75105239    -0.20400
F997        F  0.49376166  0.07945198  0.72588976    -0.20100
F998        F  0.42897249  0.92287205  0.77813659    -0.20200
F999        F  0.39198275  0.93330449  0.78322151    -0.20500
F1000       F  0.42390076  0.94374316  0.83512862    -0.23200
C1001       C  0.34368036  0.88957356  0.38704315    -0.06000
C1002       C  0.31350789  0.86750466  0.38465605    -0.00100
C1003       C  0.29831529  0.85404868  0.42224822    -0.08600
C1004       C  0.31427083  0.86264798  0.45961043    -0.06000
C1005       C  0.34455833  0.88371661  0.46141549    -0.00100
C1006       C  0.35945964  0.89802430  0.42451813    -0.08500
C1007       C  0.39184575  0.92253442  0.42430889     0.61800
H1008       H  0.35523506  0.90005899  0.35893682     0.12500
H1009       H  0.30328910  0.85224775  0.48809055     0.12500
C1010       C  0.26550824  0.83050646  0.42407678     0.62100
F1011       F  0.39998127  0.93731392  0.38709204    -0.23100
F1012       F  0.40986262  0.91056561  0.43122021    -0.20400
F1013       F  0.39676506  0.94324034  0.45443007    -0.20100
F1014       F  0.26051848  0.80553042  0.40253923    -0.20200
F1015       F  0.24855931  0.84165287  0.40782356    -0.20500
F1016       F  0.25582746  0.82163391  0.46389103    -0.23200
C1017       C  0.34830698  0.99071261  0.21040946    -0.06000
C1018       C  0.34830666  0.97262238  0.24282334    -0.00100
C1019       C  0.36633085  0.98669354  0.27758519    -0.08600
C1020       C  0.38141374  0.01803803  0.27995960    -0.06000
C1021       C  0.37959653  0.03587435  0.24870592    -0.00100
C1022       C  0.36377866  0.02194245  0.21242339    -0.08500
C1023       C  0.36220378  0.03965641  0.17644190     0.61800
H1024       H  0.33508494  0.98013141  0.18339977     0.12500
H1025       H  0.39408599  0.02895042  0.30728065     0.12500
C1026       C  0.36999886  0.96905990  0.31184616     0.62100
F1027       F  0.39042076  0.05799434  0.16127436    -0.23100
F1028       F  0.35003150  0.05660275  0.18890788    -0.20400
F1029       F  0.34495990  0.02154321  0.14462942    -0.20100
F1030       F  0.37786999  0.94948144  0.29553299    -0.20200
F1031       F  0.34373339  0.95344263  0.33335810    -0.20500
F1032       F  0.39194445  0.98729698  0.33932056    -0.23200
C1033       C  0.18392108  0.97347347  0.75793700    -0.06000
C1034       C  0.19337854  0.99143645  0.79348089    -0.00100
C1035       C  0.20965190  0.02276734  0.78858977    -0.08600
C1036       C  0.21585968  0.03459675  0.74858036    -0.06000
C1037       C  0.20604465  0.01667808  0.71307547    -0.00100
C1038       C  0.18964038  0.98535421  0.71789864    -0.08500
C1039       C  0.17744130  0.96428460  0.68144900     0.61800
H1040       H  0.17178417  0.94961635  0.76167000     0.12500
H1041       H  0.22867077  0.05843169  0.74481217     0.12500
C1042       C  0.21994909  0.04400899  0.82493542     0.62100
F1043       F  0.15967607  0.93504689  0.69355974    -0.23100
F1044       F  0.20057860  0.96594215  0.65863703    -0.20400
F1045       F  0.16034257  0.97165065  0.65708935    -0.20100
F1046       F  0.24100625  0.04124723  0.84728051    -0.20200
F1047       F  0.19600491  0.03785742  0.84974004    -0.20500
F1048       F  0.23269314  0.07334377  0.81271947    -0.23200
C1049       C  0.34952042  0.05972266  0.93255110    -0.06000
C1050       C  0.36108153  0.04675838  0.90600778    -0.00100
C1051       C  0.34099850  0.01899533  0.88712027    -0.08600
C1052       C  0.31032565  0.00597273  0.89444205    -0.06000
C1053       C  0.29889186  0.01856559  0.92136800    -0.00100
C1054       C  0.31869731  0.04591491  0.94090525    -0.08500
C1055       C  0.30719106  0.06060543  0.96994309     0.61800
H1056       H  0.36485546  0.08070139  0.94687685     0.12500
H1057       H  0.29491496  0.98482520  0.88055280     0.12500
C1058       C  0.35167145  0.00184729  0.86123785     0.62100
F1059       F  0.32948623  0.08838999  0.98232718    -0.23100
F1060       F  0.29535812  0.04337401  0.00463389    -0.20400
F1061       F  0.28543125  0.06394253  0.95054560    -0.20100
F1062       F  0.36184103  0.01558909  0.82369701    -0.20200
F1063       F  0.37417361  0.00027643  0.88154391    -0.20500
F1064       F  0.32918878  0.97303882  0.85372094    -0.23200
C1065       C  0.20460302  0.87365239  0.04570539    -0.06000
C1066       C  0.18877372  0.88705818  0.05955811    -0.00100
C1067       C  0.17983586  0.88425532  0.10091493    -0.08600
C1068       C  0.19031872  0.87088458  0.12848960    -0.06000
C1069       C  0.20954264  0.86095755  0.11532353    -0.00100
C1070       C  0.21480761  0.86008419  0.07289069    -0.08500
C1071       C  0.23222564  0.84661376  0.05493290     0.61800
H1072       H  0.21050430  0.87521732  0.01355335     0.12500
H1073       H  0.18597092  0.87083764  0.16100079     0.12500
C1074       C  0.16007662  0.89597563  0.11568374     0.62100
F1075       F  0.21678993  0.82865525  0.02199713    -0.23100
F1076       F  0.23680083  0.82933916  0.08276635    -0.20400
F1077       F  0.25943718  0.86908022  0.04131274    -0.20100
F1078       F  0.13495801  0.88468874  0.09129045    -0.20200
F1079       F  0.17517359  0.92661132  0.11349852    -0.20500
F1080       F  0.15110291  0.88779527  0.15587001    -0.23200
C1081       C  0.48500447  0.87474599  0.60735428    -0.06000
C1082       C  0.46588200  0.87893104  0.63311294    -0.00100
C1083       C  0.46829246  0.87657131  0.67621649    -0.08600
C1084       C  0.49278306  0.87535211  0.69209477    -0.06000
C1085       C  0.51403661  0.87461925  0.66641392    -0.00100
C1086       C  0.50855637  0.87167373  0.62322703    -0.08500
C1087       C  0.52699490  0.86505283  0.59360252     0.61800
H1088       H  0.48226812  0.87525823  0.57446339     0.12500
H1089       H  0.49598315  0.87623023  0.72502138     0.12500
C1090       C  0.44536219  0.87558042  0.70581516     0.62100
F1091       F  0.51283429  0.85511130  0.55613257    -0.23100
F1092       F  0.53149604  0.84300055  0.60951676    -0.20400
F1093       F  0.55404305  0.89038844  0.58663732    -0.20100
F1094       F  0.41710716  0.85846682  0.68973984    -0.20200
F1095       F  0.45085306  0.90400926  0.71310451    -0.20500
F1096       F  0.44618838  0.86311926  0.74296795    -0.23200
C1097       C  0.63444087  0.86137339  0.57464033    -0.06000
C1098       C  0.64357462  0.86586779  0.61569516    -0.00100
C1099       C  0.67381944  0.87712747  0.62607566    -0.08600
C1100       C  0.69448700  0.88656182  0.59422521    -0.06000
C1101       C  0.68553911  0.88448874  0.55340103    -0.00100
C1102       C  0.65510783  0.87029741  0.54283070    -0.08500
C1103       C  0.64465613  0.86628512  0.49845975     0.61800
H1104       H  0.61107935  0.85210327  0.56778560     0.12500
H1105       H  0.71801253  0.89719455  0.60090969     0.12500
C1106       C  0.68461352  0.88111385  0.67027661     0.62100
F1107       F  0.61408776  0.85287014  0.49555808    -0.23100
F1108       F  0.65320741  0.84852992  0.47805656    -0.20400
F1109       F  0.65685315  0.89355277  0.47915752    -0.20100
F1110       F  0.67212033  0.85378116  0.68944493    -0.20200
F1111       F  0.67679916  0.89928994  0.69111908    -0.20500
F1112       F  0.71515381  0.89390668  0.67268943    -0.23200
C1113       C  0.63703412  0.12728361  0.88194850    -0.06000
C1114       C  0.64184032  0.13411662  0.83956067    -0.00100
C1115       C  0.62154264  0.14030874  0.81862284    -0.08600
C1116       C  0.59610822  0.13645974  0.83971376    -0.06000
C1117       C  0.59053684  0.12754825  0.88103936    -0.00100
C1118       C  0.61176408  0.12367568  0.90290319    -0.08500
C1119       C  0.60683247  0.11385414  0.94750964     0.61800
H1120       H  0.65259948  0.12325055  0.89863734     0.12500
H1121       H  0.57962338  0.13942629  0.82352360     0.12500
C1122       C  0.62606892  0.15059176  0.77427943     0.62100
F1123       F  0.62975614  0.11050108  0.96284788    -0.23100
F1124       F  0.58079666  0.08688115  0.95108430    -0.20400
F1125       F  0.60495769  0.13478084  0.97135388    -0.20100
F1126       F  0.62157836  0.12755286  0.74864572    -0.20200
F1127       F  0.65451898  0.17434072  0.76910403    -0.20500
F1128       F  0.60646810  0.15987032  0.76265669    -0.23200
C1129       C  0.63893296  0.01652750  0.79442872    -0.06000
C1130       C  0.64335728  0.03589469  0.76122920    -0.00100
C1131       C  0.62991917  0.02300373  0.72294448    -0.08600
C1132       C  0.61463226  0.99172617  0.71907010    -0.06000
C1133       C  0.61267990  0.97272395  0.75137469    -0.00100
C1134       C  0.62450360  0.98543809  0.79016478    -0.08500
C1135       C  0.62361576  0.96672315  0.82653505     0.61800
H1136       H  0.64820152  0.02593162  0.82407581     0.12500
H1137       H  0.60508957  0.98178246  0.68969270     0.12500
C1138       C  0.63199360  0.04167017  0.68584389     0.62100
F1139       F  0.63795703  0.98385107  0.86064536    -0.23100
F1140       F  0.63746816  0.95087463  0.81638127    -0.20400
F1141       F  0.59448698  0.94735051  0.83739056    -0.20100
F1142       F  0.66109102  0.05777553  0.67257529    -0.20200
F1143       F  0.62183014  0.06078097  0.69602056    -0.20500
F1144       F  0.61501678  0.02437325  0.65328272    -0.23200
C1145       C  0.80561230  0.98906674  0.26414068    -0.06000
C1146       C  0.78553294  0.99165487  0.29024895    -0.00100
C1147       C  0.77127046  0.00715649  0.27600136    -0.08600
C1148       C  0.77845605  0.02027803  0.23668400    -0.06000
C1149       C  0.79884474  0.01795759  0.21123027    -0.00100
C1150       C  0.81253383  0.00202026  0.22483601    -0.08500
C1151       C  0.83432265  0.99879382  0.19760938     0.61800
H1152       H  0.81604909  0.97685515  0.27492580     0.12500
H1153       H  0.76843090  0.03280864  0.22558777     0.12500
C1154       C  0.74806860  0.00932049  0.30145381     0.62100
F1155       F  0.84524165  0.98238401  0.21628983    -0.23100
F1156       F  0.85804991  0.02650746  0.18830280    -0.20400
F1157       F  0.82032474  0.98457360  0.16164636    -0.20100
F1158       F  0.76144488  0.02739700  0.33507260    -0.20200
F1159       F  0.72668990  0.98137611  0.31447874    -0.20500
F1160       F  0.73385430  0.02119544  0.27922690    -0.23200
C1161       C  0.79558044  0.14305965  0.95705472    -0.06000
C1162       C  0.80858034  0.12630507  0.94522775    -0.00100
C1163       C  0.81329687  0.12345668  0.90309083    -0.08600
C1164       C  0.80092640  0.13396646  0.87403710    -0.06000
C1165       C  0.78437620  0.14714184  0.88609921    -0.00100
C1166       C  0.78306369  0.15340444  0.92804374    -0.08500
C1167       C  0.76709791  0.16935404  0.94253335     0.61800
H1168       H  0.79256533  0.14544889  0.98945213     0.12500
H1169       H  0.80261821  0.13010301  0.84169897     0.12500
C1170       C  0.83054808  0.10919629  0.88717966     0.62100
F1171       F  0.77488336  0.17951845  0.98242183    -0.23100
F1172       F  0.73675605  0.15022072  0.94129251    -0.20400
F1173       F  0.77441151  0.19358723  0.91769745    -0.20100
F1174       F  0.81145213  0.08327834  0.86655574    -0.20200
F1175       F  0.84469419  0.10274475  0.91796667    -0.20500
F1176       F  0.85210672  0.12843178  0.86013408    -0.23200
C1177       C  0.67732840  0.12091843  0.59993245    -0.06000
C1178       C  0.67349255  0.14047055  0.62521262    -0.00100
C1179       C  0.65864684  0.15482828  0.60976676    -0.08600
C1180       C  0.64582442  0.14715690  0.57034905    -0.06000
C1181       C  0.64924648  0.12724046  0.54490555    -0.00100
C1182       C  0.66607370  0.11451356  0.55953956    -0.08500
C1183       C  0.67223305  0.09431669  0.53300120     0.61800
H1184       H  0.69004131  0.11132623  0.61186786     0.12500
H1185       H  0.63348227  0.15721939  0.55866053     0.12500
C1186       C  0.65740535  0.17888320  0.63439761     0.62100
F1187       F  0.68752076  0.08314834  0.55422449    -0.23100
F1188       F  0.68939446  0.11010173  0.49978181    -0.20400
F1189       F  0.64579587  0.07056855  0.51941067    -0.20100
F1190       F  0.68593922  0.20177343  0.64220117    -0.20200
F1191       F  0.64309478  0.16735573  0.67123331    -0.20500
F1192       F  0.64242672  0.19058160  0.61363784    -0.23200
C1193       C  0.52069013  0.12074494  0.33081455    -0.06000
C1194       C  0.52242042  0.12166407  0.37402845    -0.00100
C1195       C  0.50307206  0.12826122  0.39618963    -0.08600
C1196       C  0.48157588  0.13174658  0.37441131    -0.06000
C1197       C  0.47844689  0.12886300  0.33129242    -0.00100
C1198       C  0.49934416  0.12444492  0.30890297    -0.08500
C1199       C  0.49897578  0.12277351  0.26229105     0.61800
H1200       H  0.53603372  0.11636626  0.31413337     0.12500
H1201       H  0.46629551  0.13601719  0.39141618     0.12500
C1202       C  0.50418343  0.13053804  0.44269801     0.62100
F1203       F  0.52157206  0.11883352  0.24721500    -0.23100
F1204       F  0.50275670  0.14895027  0.24597128    -0.20400
F1205       F  0.47234314  0.09913552  0.24889714    -0.20100
F1206       F  0.53103723  0.15445956  0.45476774    -0.20200
F1207       F  0.50098512  0.10476022  0.45967154    -0.20500
F1208       F  0.48182783  0.13468887  0.45822669    -0.23200
C1209       C  0.47571662  0.97612441  0.48700902    -0.06000
C1210       C  0.47515287  0.97742789  0.53006737    -0.00100
C1211       C  0.49618321  0.00417947  0.54999858    -0.08600
C1212       C  0.51676474  0.02826305  0.52592342    -0.06000
C1213       C  0.51725721  0.02691691  0.48283578    -0.00100
C1214       C  0.49617103  0.00015202  0.46293646    -0.08500
C1215       C  0.49466537  0.99646617  0.41654479     0.61800
H1216       H  0.45962800  0.95582510  0.47195981     0.12500
H1217       H  0.53285193  0.04863714  0.54086671     0.12500
C1218       C  0.49713522  0.00784412  0.59630458     0.62100
F1219       F  0.47025681  0.97003287  0.40407391    -0.23100
F1220       F  0.51972678  0.99642643  0.40287791    -0.20400
F1221       F  0.49261832  0.01929632  0.39818311    -0.20100
F1222       F  0.49900974  0.98505489  0.61514587    -0.20200
F1223       F  0.47180633  0.00775086  0.60903702    -0.20500
F1224       F  0.52136140  0.03432228  0.60902862    -0.23200
C1225       C  0.71693720  0.04200742  0.41985936    -0.06000
C1226       C  0.70046009  0.01085140  0.42029660    -0.00100
C1227       C  0.66910308  0.99622553  0.41793589    -0.08600
C1228       C  0.65528201  0.01334817  0.41473086    -0.06000
C1229       C  0.67158590  0.04449123  0.41438142    -0.00100
C1230       C  0.70301903  0.05923167  0.41667094    -0.08500
C1231       C  0.72293592  0.09268662  0.41553208     0.61800
H1232       H  0.74088592  0.05301449  0.42273046     0.12500
H1233       H  0.63133700  0.00243392  0.41211389     0.12500
C1234       C  0.65028347  0.96253958  0.41889892     0.62100
F1235       F  0.73951465  0.10199329  0.45125771    -0.23100
F1236       F  0.70750032  0.10771140  0.41195730    -0.20400
F1237       F  0.74201033  0.10032013  0.38247616    -0.20100
F1238       F  0.65239382  0.95212325  0.45704208    -0.20200
F1239       F  0.66006724  0.95045580  0.38927115    -0.20500
F1240       F  0.62062073  0.95275231  0.41135248    -0.23200
C1241       C  0.53461625  0.88848536  0.88209865    -0.06000
C1242       C  0.53764805  0.86319804  0.87917848    -0.00100
C1243       C  0.53281227  0.84565853  0.91524103    -0.08600
C1244       C  0.52674499  0.85512122  0.95262128    -0.06000
C1245       C  0.52384516  0.88031600  0.95526232    -0.00100
C1246       C  0.52747964  0.89722867  0.91929319    -0.08500
C1247       C  0.52426977  0.92466255  0.91992482     0.61800
H1248       H  0.53778441  0.90150730  0.85474365     0.12500
H1249       H  0.52353726  0.84241618  0.98036508     0.12500
C1250       C  0.53312107  0.81659619  0.91503313     0.62100
F1251       F  0.53324969  0.94022563  0.88335672    -0.23100
F1252       F  0.54146776  0.94361566  0.95104003    -0.20400
F1253       F  0.49485957  0.91637787  0.92603564    -0.20100
F1254       F  0.56165658  0.82210601  0.90845367    -0.20200
F1255       F  0.51434603  0.79805125  0.88469852    -0.20500
F1256       F  0.52349081  0.80157557  0.95194213    -0.23200
C1257       C  0.40061431  0.87805655  0.17022632    -0.06000
C1258       C  0.40473410  0.88489194  0.12810174    -0.00100
C1259       C  0.38266670  0.88747254  0.10635872    -0.08600
C1260       C  0.35708779  0.88270279  0.12749314    -0.06000
C1261       C  0.35316942  0.87697539  0.17018049    -0.00100
C1262       C  0.37543199  0.87429153  0.19189769    -0.08500
C1263       C  0.37333353  0.86808258  0.23767505     0.61800
H1264       H  0.41800892  0.87664255  0.18644092     0.12500
H1265       H  0.34048477  0.88500533  0.11062544     0.12500
C1266       C  0.38706145  0.89752484  0.06181071     0.62100
F1267       F  0.39566803  0.86312672  0.25118691    -0.23100
F1268       F  0.34646338  0.84304688  0.24665002    -0.20400
F1269       F  0.37589142  0.89216485  0.25910442    -0.20100
F1270       F  0.38878136  0.87687024  0.03717043    -0.20200
F1271       F  0.41296502  0.92462953  0.05817564    -0.20500
F1272       F  0.36393394  0.90089701  0.04738800    -0.23200
C1273       C  0.53144965  0.99216832  0.29783393    -0.06000
C1274       C  0.54092400  0.02112298  0.28444152    -0.00100
C1275       C  0.53640253  0.02653875  0.24355317    -0.08600
C1276       C  0.52574722  0.00295442  0.21571737    -0.06000
C1277       C  0.51985047  0.97464913  0.22797285    -0.00100
C1278       C  0.52025813  0.96843050  0.27012191    -0.08500
C1279       C  0.51058495  0.93754554  0.28604834     0.61800
H1280       H  0.53465393  0.98846333  0.32967173     0.12500
H1281       H  0.52417793  0.00714488  0.18366789     0.12500
C1282       C  0.54314651  0.05708638  0.22963908     0.62100
F1283       F  0.50077190  0.93446144  0.32619071    -0.23100
F1284       F  0.53426731  0.93261667  0.28477585    -0.20400
F1285       F  0.48742278  0.91620014  0.26280187    -0.20100
F1286       F  0.57324416  0.07702460  0.23252974    -0.20200
F1287       F  0.52799294  0.06661782  0.25429349    -0.20500
F1288       F  0.53450106  0.05686004  0.18938936    -0.23200
C1289       C  0.67416113  0.98283780  0.04288672    -0.06000
C1290       C  0.69404314  0.98830908  0.07585985    -0.00100
C1291       C  0.68176601  0.97429874  0.11409693    -0.08600
C1292       C  0.65053127  0.95717307  0.11803831    -0.06000
C1293       C  0.63082699  0.95388089  0.08595860    -0.00100
C1294       C  0.64300612  0.96631287  0.04715915    -0.08500
C1295       C  0.62353796  0.96356267  0.01064249     0.61800
H1296       H  0.68314026  0.99265399  0.01335200     0.12500
H1297       H  0.64109069  0.94708637  0.14733544     0.12500
C1298       C  0.70096829  0.97769889  0.15122909     0.62100
F1299       F  0.64006803  0.97822126  0.97633474    -0.23100
F1300       F  0.60607215  0.97575032  0.02029613    -0.20400
F1301       F  0.60566686  0.93398361  0.00028120    -0.20100
F1302       F  0.71587491  0.00697391  0.16404200    -0.20200
F1303       F  0.72114317  0.96883795  0.14136991    -0.20500
F1304       F  0.68432374  0.96056244  0.18404027    -0.23200
C1305       C  0.49759047  0.98175524  0.98279738    -0.06000
C1306       C  0.49499559  0.98043973  0.02580954    -0.00100
C1307       C  0.49569766  0.00471573  0.04671336    -0.08600
C1308       C  0.49822615  0.02885308  0.02366905    -0.06000
C1309       C  0.50047629  0.03002391  0.98058002    -0.00100
C1310       C  0.50085827  0.00620535  0.95984123    -0.08500
C1311       C  0.50554444  0.00667279  0.91382788     0.61800
H1312       H  0.49730387  0.96332637  0.96708144     0.12500
H1313       H  0.49870236  0.04732816  0.03940964     0.12500
C1314       C  0.49412844  0.00551806  0.09312265     0.62100
F1315       F  0.51002847  0.98386617  0.90122129    -0.23100
F1316       F  0.53026057  0.03316749  0.90253039    -0.20400
F1317       F  0.48079070  0.00345474  0.89366148    -0.20100
F1318       F  0.51969892  0.00791618  0.10945826    -0.20200
F1319       F  0.46961456  0.97993926  0.10738112    -0.20500
F1320       F  0.49196781  0.02949251  0.10687867    -0.23200
C1321       C  0.45352528  0.20002713  0.83423126    -0.06000
C1322       C  0.45375030  0.20193332  0.79107034    -0.00100
C1323       C  0.45903412  0.18196915  0.76808748    -0.08600
C1324       C  0.46138234  0.15946640  0.78907980    -0.06000
C1325       C  0.45851047  0.15583910  0.83221470    -0.00100
C1326       C  0.45583389  0.17758647  0.85535727    -0.08500
C1327       C  0.45434545  0.17704287  0.90198687     0.61800
H1328       H  0.45033611  0.21592523  0.85155981     0.12500
H1329       H  0.46453694  0.14372891  0.77134540     0.12500
C1330       C  0.46101623  0.18346803  0.72157013     0.62100
F1331       F  0.47945390  0.17817507  0.91810100    -0.23100
F1332       F  0.42925177  0.15150925  0.91500422    -0.20400
F1333       F  0.45300316  0.20102898  0.91767503    -0.20100
F1334       F  0.48484704  0.21042482  0.70972474    -0.20200
F1335       F  0.43513124  0.18041258  0.70517752    -0.20500
F1336       F  0.46508736  0.16125190  0.70523073    -0.23200
C1337       C  0.34839374  0.19844084  0.65336616    -0.06000
C1338       C  0.35477755  0.19271588  0.69299784    -0.00100
C1339       C  0.33509839  0.16516643  0.71201545    -0.08600
C1340       C  0.31000764  0.14399266  0.68989831    -0.06000
C1341       C  0.30389511  0.14968954  0.65002097    -0.00100
C1342       C  0.32279437  0.17776645  0.63193609    -0.08500
C1343       C  0.31497706  0.18674942  0.59154413     0.61800
H1344       H  0.36335861  0.21980091  0.63972206     0.12500
H1345       H  0.29497441  0.12263066  0.70348526     0.12500
C1346       C  0.34087107  0.15777939  0.75490543     0.62100
F1347       F  0.33531749  0.21575905  0.58106082    -0.23100
F1348       F  0.28741370  0.18431116  0.59471316    -0.20400
F1349       F  0.31434655  0.16875319  0.56017096    -0.20100
F1350       F  0.33848190  0.17621774  0.78316928    -0.20200
F1351       F  0.36903116  0.16144484  0.75698528    -0.20500
F1352       F  0.32070178  0.12877927  0.76573292    -0.23200
C1353       C  0.20388192  0.05944599  0.05944924    -0.06000
C1354       C  0.21640306  0.08531510  0.03528156    -0.00100
C1355       C  0.22315079  0.08307298  0.99338233    -0.08600
C1356       C  0.21877712  0.05574325  0.97848874    -0.06000
C1357       C  0.20812893  0.03051168  0.00343038    -0.00100
C1358       C  0.19959697  0.03210314  0.04442230    -0.08500
C1359       C  0.18579908  0.00515219  0.07245511     0.61800
H1360       H  0.19844581  0.06100794  0.09105734     0.12500
H1361       H  0.22513301  0.05430124  0.94732424     0.12500
C1362       C  0.23514614  0.10916052  0.96388733     0.62100
F1363       F  0.17348044  0.00997493  0.10712566    -0.23100
F1364       F  0.20716720  0.99861140  0.08523544    -0.20400
F1365       F  0.16343597  0.98100079  0.05187966    -0.20100
F1366       F  0.26422695  0.12953460  0.97386833    -0.20200
F1367       F  0.21789316  0.12240124  0.96576214    -0.20500
F1368       F  0.23482193  0.10049415  0.92361782    -0.23200
C1369       C  0.33817743  0.21060804  0.95974829    -0.06000
C1370       C  0.30961034  0.20268448  0.94589400    -0.00100
C1371       C  0.30345801  0.20036305  0.90328212    -0.08600
C1372       C  0.32720437  0.20970876  0.87597975    -0.06000
C1373       C  0.35632726  0.22132319  0.89025842    -0.00100
C1374       C  0.36195423  0.22035331  0.93238574    -0.08500
C1375       C  0.39282769  0.22970345  0.94818358     0.61800
H1376       H  0.34225482  0.21133286  0.99245128     0.12500
H1377       H  0.32346988  0.21042444  0.84336093     0.12500
C1378       C  0.27267072  0.19006111  0.88624519     0.62100
F1379       F  0.39270024  0.22410165  0.98974133    -0.23100
F1380       F  0.41161063  0.25973433  0.94198225    -0.20400
F1381       F  0.40374775  0.21402987  0.92755981    -0.20100
F1382       F  0.26690679  0.21319053  0.88750596    -0.20200
F1383       F  0.25146766  0.16648798  0.90879910    -0.20500
F1384       F  0.27026838  0.18068500  0.84592531    -0.23200
C1385       C  0.33081326  0.15013292  0.18281814    -0.06000
C1386       C  0.35565978  0.17844763  0.18864144    -0.00100
C1387       C  0.35478860  0.20367457  0.17380036    -0.08600
C1388       C  0.32908584  0.19940358  0.15314530    -0.06000
C1389       C  0.30433692  0.17101553  0.14709242    -0.00100
C1390       C  0.30528963  0.14584916  0.16183097    -0.08500
C1391       C  0.28002720  0.11442402  0.15410817     0.61800
H1392       H  0.33178879  0.13114709  0.19431449     0.12500
H1393       H  0.32807240  0.21834197  0.14152840     0.12500
C1394       C  0.38049480  0.23505227  0.18032636     0.62100
F1395       F  0.28769899  0.09343636  0.16473572    -0.23100
F1396       F  0.27256777  0.11069536  0.11290399    -0.20400
F1397       F  0.25557396  0.10904058  0.17714889    -0.20100
F1398       F  0.40431121  0.23970602  0.15634876    -0.20200
F1399       F  0.38888725  0.23933191  0.22118902    -0.20500
F1400       F  0.37299614  0.25617759  0.16970345    -0.23200
C1401       C  0.33905355  0.36791123  0.77887972    -0.06000
C1402       C  0.34902818  0.38790385  0.74618934    -0.00100
C1403       C  0.37335697  0.39131459  0.72233261    -0.08600
C1404       C  0.38606147  0.37351394  0.73142497    -0.06000
C1405       C  0.37484237  0.35204468  0.76275758    -0.00100
C1406       C  0.35089524  0.34948298  0.78734802    -0.08500
C1407       C  0.33655776  0.32671426  0.82163851     0.61800
H1408       H  0.32051683  0.36571213  0.79665418     0.12500
H1409       H  0.40475966  0.37612394  0.71379303     0.12500
C1410       C  0.38603816  0.41376516  0.68765761     0.62100
F1411       F  0.31071541  0.32496879  0.83589846    -0.23100
F1412       F  0.35584222  0.33452108  0.85457028    -0.20400
F1413       F  0.32918558  0.29878427  0.80755210    -0.20100
F1414       F  0.39011238  0.44083434  0.70068600    -0.20200
F1415       F  0.36688412  0.40388346  0.65448512    -0.20500
F1416       F  0.41321418  0.41815457  0.67462689    -0.23200
C1417       C  0.16893082  0.19248466  0.26325162    -0.06000
C1418       C  0.19213666  0.21386577  0.28762999    -0.00100
C1419       C  0.22118903  0.22994413  0.27098127    -0.08600
C1420       C  0.22628865  0.22255329  0.23140614    -0.06000
C1421       C  0.20317636  0.20060787  0.20779441    -0.00100
C1422       C  0.17398991  0.18570699  0.22334896    -0.08500
C1423       C  0.14846933  0.16291174  0.19748938     0.61800
H1424       H  0.14669416  0.18104744  0.27582155     0.12500
H1425       H  0.24843908  0.23383011  0.21852482     0.12500
C1426       C  0.24640973  0.25545643  0.29404463     0.62100
F1427       F  0.12152636  0.15167902  0.21748068    -0.23100
F1428       F  0.15299262  0.13956578  0.18843581    -0.20400
F1429       F  0.14687692  0.17591354  0.16128900    -0.20100
F1430       F  0.25375516  0.24466211  0.32803244    -0.20200
F1431       F  0.23791376  0.27552637  0.30625655    -0.20500
F1432       F  0.27156732  0.27054308  0.27000926    -0.23200
C1433       C  0.21184259  0.14468558  0.49911475    -0.06000
C1434       C  0.21206927  0.14368598  0.54227838    -0.00100
C1435       C  0.20803995  0.16467182  0.56469428    -0.08600
C1436       C  0.20581773  0.18693397  0.54296723    -0.06000
C1437       C  0.20726129  0.18908537  0.49963002    -0.00100
C1438       C  0.20916173  0.16663713  0.47724498    -0.08500
C1439       C  0.20895619  0.16573619  0.43062507     0.61800
H1440       H  0.21439820  0.12814447  0.48243229     0.12500
H1441       H  0.20339873  0.20334789  0.56015833     0.12500
C1442       C  0.20687892  0.16423376  0.61132208     0.62100
F1443       F  0.21089586  0.14189802  0.41569517    -0.23100
F1444       F  0.23284152  0.19135874  0.41531285    -0.20400
F1445       F  0.18273719  0.16297609  0.41610480    -0.20100
F1446       F  0.23189736  0.16516897  0.62737392    -0.20200
F1447       F  0.18190703  0.13861255  0.62434628    -0.20500
F1448       F  0.20553091  0.18820802  0.62702576    -0.23200
C1449       C  0.21085570  0.36363716  0.57518023    -0.06000
C1450       C  0.21305127  0.35551043  0.61529084    -0.00100
C1451       C  0.20138799  0.32538680  0.62605780    -0.08600
C1452       C  0.18940691  0.30418401  0.59492269    -0.06000
C1453       C  0.18962903  0.31250024  0.55405629    -0.00100
C1454       C  0.19914063  0.34244105  0.54383420    -0.08500
C1455       C  0.19878252  0.35240323  0.50005402     0.61800
H1456       H  0.21977678  0.38695190  0.56838483     0.12500
H1457       H  0.18156873  0.28106419  0.60176638     0.12500
C1458       C  0.20378262  0.31590617  0.66937790     0.62100
F1459       F  0.21015796  0.38275234  0.49753049    -0.23100
F1460       F  0.16991748  0.33855955  0.48560726    -0.20400
F1461       F  0.21575484  0.34533367  0.47502233    -0.20100
F1462       F  0.18811143  0.32339799  0.69624526    -0.20200
F1463       F  0.23325091  0.32986952  0.68127812    -0.20500
F1464       F  0.19239592  0.28556923  0.67219450    -0.23200
C1465       C  0.35226021  0.46555115  0.92824338    -0.06000
C1466       C  0.34035893  0.47623348  0.95780570    -0.00100
C1467       C  0.31588197  0.47950846  0.94723538    -0.08600
C1468       C  0.30479804  0.47296626  0.90679766    -0.06000
C1469       C  0.31663542  0.46232713  0.87673444    -0.00100
C1470       C  0.34038321  0.45769065  0.88818522    -0.08500
C1471       C  0.35232350  0.44318336  0.85953296     0.61800
H1472       H  0.37092773  0.46307780  0.93713993     0.12500
H1473       H  0.28646176  0.47610033  0.89843095     0.12500
C1474       C  0.30180931  0.49028996  0.97839583     0.62100
F1475       F  0.37294040  0.43790164  0.87871766    -0.23100
F1476       F  0.36606859  0.46132292  0.82618779    -0.20400
F1477       F  0.32922442  0.41615669  0.84637963    -0.20100
F1478       F  0.32304912  0.51734417  0.99434149    -0.20200
F1479       F  0.28954236  0.46984209  0.00984624    -0.20500
F1480       F  0.27951310  0.49387207  0.96117785    -0.23200
C1481       C  0.27889971  0.32844567  0.05093643    -0.06000
C1482       C  0.27597656  0.30915825  0.08339741    -0.00100
C1483       C  0.28592512  0.32155567  0.12294963    -0.08600
C1484       C  0.30100204  0.35269495  0.12725998    -0.06000
C1485       C  0.30701882  0.37234856  0.09382016    -0.00100
C1486       C  0.29409401  0.35970478  0.05523005    -0.08500
C1487       C  0.29658209  0.37857871  0.01825552     0.61800
H1488       H  0.27018757  0.31876668  0.02114295     0.12500
H1489       H  0.30928748  0.36187954  0.15734233     0.12500
C1490       C  0.28189392  0.30248450  0.16045479     0.62100
F1491       F  0.27946186  0.36147692  0.98563141    -0.23100
F1492       F  0.32574632  0.39432430  0.00523823    -0.20400
F1493       F  0.28683126  0.39801881  0.02843570    -0.20100
F1494       F  0.29604215  0.28635972  0.15446952    -0.20200
F1495       F  0.25197532  0.28335542  0.16724724    -0.20500
F1496       F  0.29362495  0.31933064  0.19565776    -0.23200
C1497       C  0.45508058  0.31050109  0.58723430    -0.06000
C1498       C  0.44942697  0.32449193  0.62044982    -0.00100
C1499       C  0.44921188  0.35125628  0.61220043    -0.08600
C1500       C  0.45574647  0.36320100  0.57218186    -0.06000
C1501       C  0.46134338  0.34915573  0.53956634    -0.00100
C1502       C  0.46071899  0.32214967  0.54698851    -0.08500
C1503       C  0.46679617  0.30613541  0.51279736     0.61800
H1504       H  0.45516192  0.29009676  0.59288152     0.12500
H1505       H  0.45639092  0.38386637  0.56579873     0.12500
C1506       C  0.44109577  0.36690574  0.64443312     0.62100
F1507       F  0.46716303  0.28128226  0.52695424    -0.23100
F1508       F  0.49408318  0.32495787  0.49519981    -0.20400
F1509       F  0.44490066  0.29702497  0.48317975    -0.20100
F1510       F  0.46179436  0.37712541  0.67568942    -0.20200
F1511       F  0.41325252  0.34733619  0.65967065    -0.20500
F1512       F  0.44023621  0.39111294  0.62864055    -0.23200
C1513       C  0.46137573  0.28718971  0.27274225    -0.06000
C1514       C  0.44916825  0.26156937  0.29722773    -0.00100
C1515       C  0.44422417  0.26425724  0.33963096    -0.08600
C1516       C  0.44886360  0.29165538  0.35459400    -0.06000
C1517       C  0.45857482  0.31666078  0.32925825    -0.00100
C1518       C  0.46649074  0.31477183  0.28787514    -0.08500
C1519       C  0.48026744  0.34139452  0.25920276     0.61800
H1520       H  0.46570700  0.28518681  0.24076088     0.12500
H1521       H  0.44327125  0.29315181  0.38614888     0.12500
C1522       C  0.43357310  0.23845896  0.36946903     0.62100
F1523       F  0.49200424  0.33591784  0.22441012    -0.23100
F1524       F  0.50313597  0.36558965  0.27901203    -0.20400
F1525       F  0.45904924  0.34818258  0.24654101    -0.20100
F1526       F  0.44953681  0.22406904  0.36406652    -0.20200
F1527       F  0.40370479  0.21876787  0.36324721    -0.20500
F1528       F  0.43728743  0.24790600  0.40988555    -0.23200
C1529       C  0.46468677  0.49540126  0.24420970    -0.06000
C1530       C  0.43885859  0.47455403  0.22368570    -0.00100
C1531       C  0.42682570  0.44387741  0.23114202    -0.08600
C1532       C  0.44128900  0.43509238  0.25883078    -0.06000
C1533       C  0.46688332  0.45560513  0.28011364    -0.00100
C1534       C  0.47867283  0.48648208  0.27344024    -0.08500
C1535       C  0.50547473  0.50986813  0.29679685     0.61800
H1536       H  0.47324612  0.51872599  0.23797058     0.12500
H1537       H  0.43189337  0.41165417  0.26499695     0.12500
C1538       C  0.39882133  0.42016452  0.21003628     0.62100
F1539       F  0.51454399  0.53819533  0.28254009    -0.23100
F1540       F  0.52893330  0.50482817  0.29251242    -0.20400
F1541       F  0.49852507  0.50892532  0.33790801    -0.20100
F1542       F  0.40145136  0.42426802  0.16801384    -0.20200
F1543       F  0.37460625  0.42165260  0.22410483    -0.20500
F1544       F  0.39350695  0.39179744  0.21792224    -0.23200
C1545       C  0.35012619  0.30499686  0.42792728    -0.06000
C1546       C  0.36077916  0.32581726  0.39582958    -0.00100
C1547       C  0.33972659  0.32913591  0.37140471    -0.08600
C1548       C  0.30927299  0.31203660  0.38097644    -0.06000
C1549       C  0.29898870  0.29244401  0.41420965    -0.00100
C1550       C  0.31960687  0.28824294  0.43759451    -0.08500
C1551       C  0.30946861  0.26599805  0.47253657     0.61800
H1552       H  0.36603660  0.30230489  0.44605722     0.12500
H1553       H  0.29312687  0.31480245  0.36353853     0.12500
C1554       C  0.34885520  0.35141382  0.33633412     0.62100
F1555       F  0.33191042  0.26109168  0.48567093    -0.23100
F1556       F  0.28591409  0.23910227  0.45976882    -0.20400
F1557       F  0.30073475  0.27641344  0.50555401    -0.20100
F1558       F  0.36005822  0.34270902  0.30417277    -0.20200
F1559       F  0.37001608  0.37938956  0.34976108    -0.20500
F1560       F  0.32516599  0.35355585  0.32121172    -0.23200
C1561       C  0.48824797  0.36205908  0.87297048    -0.06000
C1562       C  0.48024851  0.36379322  0.83213140    -0.00100
C1563       C  0.49498716  0.39163705  0.81194045    -0.08600
C1564       C  0.51628995  0.41660975  0.83380052    -0.06000
C1565       C  0.52293381  0.41534383  0.87550154    -0.00100
C1566       C  0.50895496  0.38724685  0.89533709    -0.08500
C1567       C  0.51458495  0.38357723  0.94016453     0.61800
H1568       H  0.47707858  0.34063926  0.88797772     0.12500
H1569       H  0.52754133  0.43781969  0.81829451     0.12500
C1570       C  0.48766884  0.39556039  0.76809147     0.62100
F1571       F  0.49721355  0.35456105  0.95343132    -0.23100
F1572       F  0.50803676  0.40127155  0.96451671    -0.20400
F1573       F  0.54393913  0.39139199  0.94559768    -0.20100
F1574       F  0.45792437  0.38688135  0.76491097    -0.20200
F1575       F  0.49422471  0.37867398  0.74213582    -0.20500
F1576       F  0.50385984  0.42475194  0.75515184    -0.23200
C1577       C  0.49893796  0.48232130  0.00990260    -0.06000
C1578       C  0.51768846  0.50455902  0.98203140    -0.00100
C1579       C  0.51315417  0.52903689  0.97545078    -0.08600
C1580       C  0.49033362  0.53012217  0.99708561    -0.06000
C1581       C  0.47166726  0.50793539  0.02492182    -0.00100
C1582       C  0.47591791  0.48334728  0.03125787    -0.08500
C1583       C  0.45583737  0.45767329  0.05921607     0.61800
H1584       H  0.50222345  0.46361940  0.01458575     0.12500
H1585       H  0.48695154  0.54876325  0.99242817     0.12500
C1586       C  0.53229249  0.55440853  0.94644791     0.62100
F1587       F  0.46164373  0.43456282  0.05669962    -0.23100
F1588       F  0.42650976  0.44665979  0.04812454    -0.20400
F1589       F  0.46003262  0.46713079  0.09958329    -0.20100
F1590       F  0.52767924  0.54411743  0.90651826    -0.20200
F1591       F  0.56187771  0.56650668  0.95681955    -0.20500
F1592       F  0.52563854  0.57698320  0.94809937    -0.23200
C1593       C  0.39953319  0.53601745  0.66589918    -0.06000
C1594       C  0.40319045  0.53549474  0.62323501    -0.00100
C1595       C  0.37937753  0.51373934  0.59954550    -0.08600
C1596       C  0.35459583  0.49089467  0.62011668    -0.06000
C1597       C  0.35223726  0.48949336  0.66341467    -0.00100
C1598       C  0.37411071  0.51404040  0.68640171    -0.08500
C1599       C  0.37140615  0.51731238  0.73225647     0.61800
H1600       H  0.41744275  0.55353648  0.68344336     0.12500
H1601       H  0.33719059  0.47329198  0.60212735     0.12500
C1602       C  0.38039916  0.51394253  0.55294050     0.62100
F1603       F  0.39271978  0.54501700  0.74640772    -0.23100
F1604       F  0.37494080  0.49624937  0.75323013    -0.20400
F1605       F  0.34394170  0.51403074  0.74101511    -0.20100
F1606       F  0.40456850  0.51202253  0.53966764    -0.20200
F1607       F  0.38258310  0.53991348  0.53845726    -0.20500
F1608       F  0.35509864  0.49044685  0.53602168    -0.23200
C1609       C  0.56349670  0.74977372  0.66753608    -0.06000
C1610       C  0.55062996  0.74781539  0.70646665    -0.00100
C1611       C  0.53411834  0.71919065  0.72481582    -0.08600
C1612       C  0.53158956  0.69426145  0.70373639    -0.06000
C1613       C  0.54513306  0.69664042  0.66551261    -0.00100
C1614       C  0.56160515  0.72501029  0.64718564    -0.08500
C1615       C  0.57866440  0.72959182  0.60744684     0.61800
H1616       H  0.57587938  0.77128021  0.65304469     0.12500
H1617       H  0.51945151  0.67245462  0.71754421     0.12500
C1618       C  0.51987778  0.71458547  0.76684511     0.62100
F1619       F  0.59602762  0.75933188  0.59751293    -0.23100
F1620       F  0.55904546  0.71563339  0.57545591    -0.20400
F1621       F  0.59730948  0.71803134  0.61130585    -0.20100
F1622       F  0.49879764  0.72325397  0.76612593    -0.20200
F1623       F  0.54137321  0.73094629  0.79585733    -0.20500
F1624       F  0.50580447  0.68514010  0.77892616    -0.23200
C1625       C  0.48509555  0.50053802  0.54150737    -0.06000
C1626       C  0.49323260  0.52731618  0.52120050    -0.00100
C1627       C  0.50495799  0.53165874  0.48079322    -0.08600
C1628       C  0.50724397  0.50858715  0.46181773    -0.06000
C1629       C  0.49877247  0.48170546  0.48191650    -0.00100
C1630       C  0.48743601  0.47747923  0.52247421    -0.08500
C1631       C  0.47658998  0.44831399  0.54489655     0.61800
H1632       H  0.47628687  0.49760978  0.57231995     0.12500
H1633       H  0.51590217  0.51142692  0.43091550     0.12500
C1634       C  0.51581456  0.56073801  0.45797871     0.62100
F1635       F  0.46373774  0.44788831  0.58224061    -0.23100
F1636       F  0.50008307  0.44374535  0.55240036    -0.20400
F1637       F  0.45552331  0.42530385  0.52120500    -0.20100
F1638       F  0.53472575  0.58431556  0.48277810    -0.20200
F1639       F  0.49190235  0.56374596  0.44666893    -0.20500
F1640       F  0.53121275  0.56204313  0.42270483    -0.23200
C1641       C  0.53099969  0.53576771  0.71238189    -0.06000
C1642       C  0.51855953  0.55280668  0.72544950    -0.00100
C1643       C  0.51595695  0.55686722  0.76781826    -0.08600
C1644       C  0.52876887  0.54617589  0.79576618    -0.06000
C1645       C  0.54448749  0.53246174  0.78237189    -0.00100
C1646       C  0.54454247  0.52578630  0.74036466    -0.08500
C1647       C  0.55958784  0.50913864  0.72506785     0.61800
H1648       H  0.53242935  0.53261323  0.67977240     0.12500
H1649       H  0.52864682  0.55063540  0.82817184     0.12500
C1650       C  0.50053457  0.57308125  0.78350509     0.62100
F1651       F  0.55203105  0.50003283  0.68474807    -0.23100
F1652       F  0.55108331  0.48417572  0.74887007    -0.20400
F1653       F  0.59005440  0.52725294  0.72722500    -0.20100
F1654       F  0.47349956  0.56242221  0.76388569    -0.20200
F1655       F  0.51796818  0.60318512  0.77625996    -0.20500
F1656       F  0.49526422  0.56906668  0.82530352    -0.23200
C1657       C  0.55300748  0.65968229  0.43527219    -0.06000
C1658       C  0.53039956  0.65985460  0.45829407    -0.00100
C1659       C  0.51359564  0.67161545  0.44102042    -0.08600
C1660       C  0.52082190  0.68398828  0.40149037    -0.06000
C1661       C  0.54313913  0.68351889  0.37798335    -0.00100
C1662       C  0.55942563  0.67091000  0.39488372    -0.08500
C1663       C  0.58335788  0.66922866  0.37064697     0.61800
H1664       H  0.56487332  0.64965377  0.44875217     0.12500
H1665       H  0.50859319  0.69367253  0.38814004     0.12500
C1666       C  0.48783897  0.67063747  0.46410092     0.62100
F1667       F  0.59789832  0.65827624  0.39408335    -0.23100
F1668       F  0.60424219  0.69715685  0.35700921    -0.20400
F1669       F  0.57067367  0.65054110  0.33739084    -0.20100
F1670       F  0.49737318  0.68398550  0.50207036    -0.20200
F1671       F  0.46566717  0.64146163  0.46947337    -0.20500
F1672       F  0.47582992  0.68524905  0.44313400    -0.23200
C1673       C  0.51565170  0.64724264  0.12339169    -0.06000
C1674       C  0.51780010  0.64897816  0.16671673    -0.00100
C1675       C  0.49493136  0.62535027  0.18989240    -0.08600
C1676       C  0.47164772  0.60118862  0.16875954    -0.06000
C1677       C  0.47058286  0.59885799  0.12567973    -0.00100
C1678       C  0.49301482  0.62241746  0.10247956    -0.08500
C1679       C  0.49430405  0.62073325  0.05603485     0.61800
H1680       H  0.53269023  0.66518018  0.10549891     0.12500
H1681       H  0.45431253  0.58300592  0.18604045     0.12500
C1682       C  0.49509826  0.62454200  0.23658496     0.62100
F1683       F  0.51948073  0.64479740  0.03991775    -0.23100
F1684       F  0.46986219  0.62026914  0.03871283    -0.20400
F1685       F  0.49469085  0.59531168  0.04494918    -0.20100
F1686       F  0.49453860  0.64892661  0.25221462    -0.20200
F1687       F  0.52017152  0.62442563  0.25030826    -0.20500
F1688       F  0.47069927  0.59940420  0.25213910    -0.23200
C1689       C  0.54768188  0.81099792  0.16391256    -0.06000
C1690       C  0.54117236  0.80539353  0.20608199    -0.00100
C1691       C  0.52798026  0.81998859  0.22636790    -0.05000
C1692       C  0.52533354  0.84214869  0.20494570    -0.06000
C1693       C  0.53458329  0.84970258  0.16386419    -0.00100
C1694       C  0.54450980  0.83264535  0.14228390    -0.08500
C1695       C  0.55300948  0.83782335  0.09715148     0.61800
H1696       H  0.55629064  0.79870718  0.14797375     0.12500
H1697       H  0.51688449  0.85463935  0.22075063     0.12500
C1698       C  0.51753810  0.81310648  0.27056494     0.62100
F1699       F  0.56265956  0.81908995  0.08285374    -0.23100
F1700       F  0.57573310  0.86669248  0.09124273    -0.20400
F1701       F  0.52860446  0.83259160  0.07395996    -0.20100
F1702       F  0.54118983  0.81913505  0.29598797    -0.20200
F1703       F  0.49593389  0.78351085  0.27401929    -0.20500
F1704       F  0.50531609  0.82983654  0.28395713    -0.23200
C1705       C  0.65476251  0.84236736  0.29723856    -0.06000
C1706       C  0.63718659  0.81490720  0.31661949    -0.00100
C1707       C  0.64550527  0.80998017  0.35601927    -0.08600
C1708       C  0.67190470  0.83251476  0.37398968    -0.06000
C1709       C  0.68969506  0.85981363  0.35428659    -0.00100
C1710       C  0.68047245  0.86531564  0.31600280    -0.08500
C1711       C  0.69677986  0.89577116  0.29621749     0.61800
H1712       H  0.64782293  0.84588337  0.26743161     0.12500
H1713       H  0.67885448  0.82906736  0.40382932     0.12500
C1714       C  0.62683875  0.78097415  0.37873276     0.62100
F1715       F  0.68166468  0.89761000  0.26242030    -0.23100
F1716       F  0.72457458  0.90191271  0.28352384    -0.20400
F1717       F  0.69973346  0.91705033  0.32423509    -0.20100
F1718       F  0.62232160  0.75744677  0.35414815    -0.20200
F1719       F  0.59974554  0.77802284  0.38888551    -0.20500
F1720       F  0.64036244  0.77966698  0.41465215    -0.23200
C1721       C  0.77606223  0.93046117  0.00385213    -0.06000
C1722       C  0.78614670  0.93200983  0.96326455    -0.00100
C1723       C  0.80047183  0.96016699  0.94354963    -0.08600
C1724       C  0.80238973  0.98495755  0.96436268    -0.06000
C1725       C  0.79035136  0.98272400  0.00380536    -0.00100
C1726       C  0.77713473  0.95484154  0.02408336    -0.08500
C1727       C  0.76220070  0.94990500  0.06571996     0.61800
H1728       H  0.76602976  0.90929635  0.01948267     0.12500
H1729       H  0.81254420  0.00634327  0.94927227     0.12500
C1730       C  0.81284749  0.96416582  0.90041338     0.62100
F1731       F  0.74836955  0.92048066  0.07786903    -0.23100
F1732       F  0.74076615  0.95806546  0.06401765    -0.20400
F1733       F  0.78305975  0.96649992  0.09521918    -0.20100
F1734       F  0.79048905  0.94610847  0.87344241    -0.20200
F1735       F  0.83502124  0.95698643  0.89962180    -0.20500
F1736       F  0.82492710  0.99313409  0.88684169    -0.23200
C1737       C  0.69724986  0.66000570  0.88449182    -0.06000
C1738       C  0.68158860  0.64070578  0.91724213    -0.00100
C1739       C  0.68282244  0.65321230  0.95627805    -0.08600
C1740       C  0.69821643  0.68438212  0.96025119    -0.06000
C1741       C  0.71174031  0.70394076  0.92668068    -0.00100
C1742       C  0.71196853  0.69125719  0.88811275    -0.08500
C1743       C  0.72681328  0.71003909  0.85039209     0.61800
H1744       H  0.69670809  0.65021811  0.85497435     0.12500
H1745       H  0.69864576  0.69362352  0.99009678     0.12500
C1746       C  0.66678480  0.63410413  0.99334603     0.62100
F1747       F  0.72577341  0.69299389  0.81713838    -0.23100
F1748       F  0.75634481  0.72981470  0.85874270    -0.20400
F1749       F  0.71261159  0.72533915  0.83909759    -0.20100
F1750       F  0.67815774  0.61587791  0.00259706    -0.20200
F1751       F  0.63674540  0.61699114  0.98509640    -0.20500
F1752       F  0.67002681  0.65097303  0.02787098    -0.23200
C1753       C  0.63620094  0.79542382  0.07663154    -0.06000
C1754       C  0.64465622  0.79420418  0.11702513    -0.00100
C1755       C  0.67501956  0.80757753  0.12765869    -0.08600
C1756       C  0.69600955  0.81901338  0.09614258    -0.06000
C1757       C  0.68739076  0.81727842  0.05503390    -0.00100
C1758       C  0.65730248  0.80727942  0.04505887    -0.08500
C1759       C  0.64718936  0.80734238  0.00130414     0.61800
H1760       H  0.61276831  0.78548175  0.06974893     0.12500
H1761       H  0.71925489  0.82754449  0.10302117     0.12500
C1762       C  0.68506857  0.80769435  0.17152551     0.62100
F1763       F  0.61695977  0.79669461  0.99903962    -0.23100
F1764       F  0.65350997  0.78962184  0.97665857    -0.20400
F1765       F  0.66159024  0.83604773  0.98627298    -0.20100
F1766       F  0.67249957  0.77891619  0.18594713    -0.20200
F1767       F  0.67650868  0.82361246  0.19628639    -0.20500
F1768       F  0.71559554  0.82062645  0.17446985    -0.23200
C1769       C  0.66592219  0.86444682  0.81608529    -0.06000
C1770       C  0.64112198  0.83576598  0.81294725    -0.00100
C1771       C  0.64297379  0.81134129  0.82859468    -0.08600
C1772       C  0.66901438  0.81679190  0.84916702    -0.06000
C1773       C  0.69362864  0.84550461  0.85304746    -0.00100
C1774       C  0.69230400  0.86983422  0.83574796    -0.08500
C1775       C  0.71811963  0.90144740  0.83908860     0.61800
H1776       H  0.66430593  0.88275169  0.80326116     0.12500
H1777       H  0.67053537  0.79843774  0.86202308     0.12500
C1778       C  0.61823822  0.77952485  0.82192398     0.62100
F1779       F  0.71106328  0.92183591  0.82345605    -0.23100
F1780       F  0.74210725  0.90429680  0.81719702    -0.20400
F1781       F  0.72601232  0.90846099  0.87984242    -0.20100
F1782       F  0.61080587  0.77489158  0.78072198    -0.20200
F1783       F  0.59359646  0.77394449  0.84462285    -0.20500
F1784       F  0.62661779  0.75927986  0.83376461    -0.23200
C1785       C  0.81633376  0.79557487  0.74672696    -0.06000
C1786       C  0.79973509  0.79533027  0.71216946    -0.00100
C1787       C  0.77554613  0.80032233  0.71878661    -0.08600
C1788       C  0.77051749  0.80721950  0.75881836    -0.06000
C1789       C  0.78769802  0.80817098  0.79269603    -0.00100
C1790       C  0.81063570  0.80156815  0.78677723    -0.08500
C1791       C  0.82983833  0.80185893  0.82216554     0.61800
H1792       H  0.83424313  0.79106179  0.74236035     0.12500
H1793       H  0.75273819  0.81183610  0.76419431     0.12500
C1794       C  0.75458588  0.79802739  0.68462954     0.62100
F1795       F  0.85232954  0.79705692  0.80904307    -0.23100
F1796       F  0.81271963  0.77970349  0.84983377    -0.20400
F1797       F  0.84278199  0.82907258  0.84179529    -0.20100
F1798       F  0.74136155  0.76999169  0.66744221    -0.20200
F1799       F  0.76999131  0.81922618  0.65493015    -0.20500
F1800       F  0.73206549  0.80243030  0.69883277    -0.23200
C1801       C  0.78450738  0.83874843  0.52401446    -0.06000
C1802       C  0.79166173  0.82124346  0.49923307    -0.00100
C1803       C  0.79931458  0.82976124  0.45739506    -0.08600
C1804       C  0.79554571  0.85277668  0.44095583    -0.06000
C1805       C  0.78545771  0.86827150  0.46497015    -0.00100
C1806       C  0.78208902  0.86257560  0.50811822    -0.08500
C1807       C  0.77481630  0.88039902  0.53806394     0.61800
H1808       H  0.77939594  0.83286090  0.55605145     0.12500
H1809       H  0.79909792  0.85778169  0.40850587     0.12500
C1810       C  0.81121912  0.81476593  0.42960081     0.62100
F1811       F  0.78335972  0.87837334  0.57765135    -0.23100
F1812       F  0.74455588  0.86951227  0.53809255    -0.20400
F1813       F  0.78964777  0.91016665  0.52766061    -0.20100
F1814       F  0.78831197  0.78737367  0.41721502    -0.20200
F1815       F  0.83253370  0.81127542  0.45009686    -0.20500
F1816       F  0.82437822  0.83148596  0.39479382    -0.23200
C1817       C  0.68532746  0.69005495  0.60510042    -0.06000
C1818       C  0.69622438  0.71550764  0.58071849    -0.00100
C1819       C  0.67578196  0.72182439  0.56069590    -0.08600
C1820       C  0.64505146  0.70246268  0.56639055    -0.06000
C1821       C  0.63414579  0.67719542  0.59142650    -0.00100
C1822       C  0.65473609  0.67029383  0.60998604    -0.08500
C1823       C  0.64485688  0.64140598  0.63308197     0.61800
H1824       H  0.70116865  0.68495542  0.61890034     0.12500
H1825       H  0.62943534  0.70756237  0.55182371     0.12500
C1826       C  0.68502144  0.74867605  0.53346000     0.62100
F1827       F  0.66777429  0.63540875  0.63722909    -0.23100
F1828       F  0.62212062  0.61784718  0.61206133    -0.20400
F1829       F  0.63531304  0.64316802  0.67198342    -0.20100
F1830       F  0.67657604  0.73928550  0.49347611    -0.20200
F1831       F  0.71521942  0.76847893  0.53427352    -0.20500
F1832       F  0.67088533  0.76369936  0.54637004    -0.23200
C1833       C  0.63131056  0.52431223  0.08314459    -0.06000
C1834       C  0.64933691  0.53307202  0.04768181    -0.00100
C1835       C  0.68056916  0.54721359  0.05305516    -0.08600
C1836       C  0.69233179  0.55369486  0.09309562    -0.06000
C1837       C  0.67436113  0.54518354  0.12846788    -0.00100
C1838       C  0.64306401  0.52939294  0.12329205    -0.08500
C1839       C  0.62185478  0.51734369  0.15945583     0.61800
H1840       H  0.60748373  0.51322192  0.07935051     0.12500
H1841       H  0.71617715  0.56546406  0.09691775     0.12500
C1842       C  0.70163149  0.55401562  0.01733086     0.62100
F1843       F  0.59267509  0.49954243  0.14702752    -0.23100
F1844       F  0.62351706  0.54062656  0.18185042    -0.20400
F1845       F  0.62905411  0.50031255  0.18422758    -0.20100
F1846       F  0.70148637  0.57538027  0.99237922    -0.20200
F1847       F  0.69290657  0.52819081  0.99543018    -0.20500
F1848       F  0.73060440  0.56462002  0.03007004    -0.23200
C1849       C  0.61783064  0.50294969  0.31708623    -0.06000
C1850       C  0.64144800  0.52268824  0.34234662    -0.00100
C1851       C  0.63983344  0.51618162  0.38526616    -0.08600
C1852       C  0.61308943  0.49285138  0.40150196    -0.06000
C1853       C  0.58873739  0.47495494  0.37631644    -0.00100
C1854       C  0.59219139  0.47843698  0.33309499    -0.08500
C1855       C  0.56951806  0.45684203  0.30263359     0.61800
H1856       H  0.61914313  0.50676806  0.28425713     0.12500
H1857       H  0.61054643  0.48937051  0.43436082     0.12500
C1858       C  0.66584176  0.53334685  0.41433308     0.62100
F1859       F  0.58393074  0.45161182  0.27090363    -0.23100
F1860       F  0.55344544  0.46894902  0.28651651    -0.20400
F1861       F  0.55023754  0.42966206  0.32016552    -0.20100
F1862       F  0.69145294  0.53618119  0.39733895    -0.20200
F1863       F  0.66965263  0.56113012  0.42208513    -0.20500
F1864       F  0.66135473  0.51893124  0.45160836    -0.23200
C1865       C  0.81038850  0.70230181  0.40816220    -0.06000
C1866       C  0.80685925  0.69391134  0.44949170    -0.00100
C1867       C  0.79503028  0.66368948  0.46040349    -0.08600
C1868       C  0.78355748  0.64240254  0.42911611    -0.06000
C1869       C  0.78447366  0.65073388  0.38815131    -0.00100
C1870       C  0.79960683  0.68105823  0.37686088    -0.08500
C1871       C  0.80267579  0.69092956  0.33233759     0.61800
H1872       H  0.82019668  0.72563573  0.40075775     0.12500
H1873       H  0.77234246  0.61896392  0.43648181     0.12500
C1874       C  0.79283876  0.65370197  0.50469854     0.62100
F1875       F  0.81712946  0.72153012  0.32877212    -0.23100
F1876       F  0.77494192  0.67946434  0.31451354    -0.20400
F1877       F  0.81896635  0.68105264  0.31097244    -0.20100
F1878       F  0.77552021  0.66185650  0.52702947    -0.20200
F1879       F  0.82093584  0.66664929  0.52164916    -0.20500
F1880       F  0.78028951  0.62322050  0.50784578    -0.23200
C1881       C  0.66740844  0.65827684  0.26020475    -0.06000
C1882       C  0.65146663  0.62719930  0.25703091    -0.00100
C1883       C  0.62052666  0.61244778  0.24879507    -0.08600
C1884       C  0.60689010  0.62973487  0.24307291    -0.06000
C1885       C  0.62304919  0.66079925  0.24654338    -0.00100
C1886       C  0.65376034  0.67536658  0.25511680    -0.08500
C1887       C  0.67200341  0.70896370  0.25879855     0.61800
H1888       H  0.69090681  0.66915435  0.26720377     0.12500
H1889       H  0.58339804  0.61888206  0.23595630     0.12500
C1890       C  0.60069900  0.57899566  0.24694700     0.62100
F1891       F  0.70144222  0.71870779  0.26794311    -0.23100
F1892       F  0.66055605  0.71842391  0.28973013    -0.20400
F1893       F  0.67110397  0.72190806  0.22218984    -0.20100
F1894       F  0.58745908  0.57099458  0.20867428    -0.20200
F1895       F  0.61568361  0.56384585  0.25390623    -0.20500
F1896       F  0.57879154  0.57018701  0.27638137    -0.23200
C1897       C  0.82543302  0.54615459  0.35915957    -0.06000
C1898       C  0.84478250  0.54229025  0.33331575    -0.00100
C1899       C  0.83780379  0.53710065  0.29067384    -0.08600
C1900       C  0.81448819  0.54043717  0.27492916    -0.06000
C1901       C  0.79753714  0.54790215  0.30022125    -0.00100
C1902       C  0.80161034  0.54863592  0.34348368    -0.08500
C1903       C  0.78137407  0.55242231  0.37337457     0.61800
H1904       H  0.83002578  0.54897527  0.39178647     0.12500
H1905       H  0.81051577  0.53895512  0.24214410     0.12500
C1906       C  0.85491034  0.52865875  0.26118051     0.62100
F1907       F  0.78423060  0.54427149  0.41283460    -0.23100
F1908       F  0.75202973  0.53472575  0.36170152    -0.20400
F1909       F  0.78846200  0.58176552  0.37438537    -0.20100
F1910       F  0.85951494  0.50706928  0.27852666    -0.20200
F1911       F  0.88186910  0.55340391  0.25174231    -0.20500
F1912       F  0.83952317  0.51728056  0.22481954    -0.23200
C1913       C  0.16441980  0.71819290  0.14792577    -0.06000
C1914       C  0.14640077  0.69372719  0.17283013    -0.00100
C1915       C  0.15456993  0.69451682  0.21478118    -0.08600
C1916       C  0.17767412  0.72131286  0.23136647    -0.06000
C1917       C  0.19354516  0.74686685  0.20719617    -0.00100
C1918       C  0.18820982  0.74447996  0.16408903    -0.08500
C1919       C  0.20653685  0.76978929  0.13480768     0.61800
H1920       H  0.15877430  0.71733335  0.11575339     0.12500
H1921       H  0.18242958  0.72278423  0.26392972     0.12500
C1922       C  0.13890792  0.66758998  0.24256334     0.62100
F1923       F  0.20370854  0.75985307  0.09472594    -0.23100
F1924       F  0.23631655  0.78348687  0.14509625    -0.20400
F1925       F  0.19690246  0.79007172  0.13644350    -0.20100
F1926       F  0.13302309  0.64210526  0.22156099    -0.20200
F1927       F  0.11263745  0.66485768  0.25662528    -0.20500
F1928       F  0.15628673  0.67009962  0.27619274    -0.23200
C1929       C  0.99923226  0.54117106  0.29463207    -0.06000
C1930       C  0.97008168  0.52871486  0.27992157    -0.00100
C1931       C  0.96442322  0.52555968  0.23731971    -0.08600
C1932       C  0.98870140  0.53849702  0.21063366    -0.06000
C1933       C  0.01789151  0.55400905  0.22562639    -0.00100
C1934       C  0.02350827  0.55400395  0.26796129    -0.08500
C1935       C  0.05480366  0.56742471  0.28479571     0.61800
H1936       H  0.00302195  0.54278900  0.32736009     0.12500
H1937       H  0.98491402  0.53824945  0.17794968     0.12500
C1938       C  0.93313551  0.50940282  0.22002708     0.62100
F1939       F  0.05483266  0.56071226  0.32590521    -0.23100
F1940       F  0.06958220  0.59795090  0.28088454    -0.20400
F1941       F  0.06997394  0.55628390  0.26339508    -0.20100
F1942       F  0.92087074  0.52750128  0.22208943    -0.20200
F1943       F  0.91570031  0.48369729  0.24208150    -0.20500
F1944       F  0.93296195  0.50145605  0.17942458    -0.23200
C1945       C  0.82774051  0.78814179  0.97888725    -0.06000
C1946       C  0.81274798  0.79849834  0.00348504    -0.00100
C1947       C  0.82207086  0.80638113  0.04497970    -0.08600
C1948       C  0.84422831  0.80114842  0.06088707    -0.06000
C1949       C  0.85733685  0.78825728  0.03722410    -0.00100
C1950       C  0.84971566  0.78270804  0.99477669    -0.08500
C1951       C  0.86354515  0.77007052  0.96596892     0.61800
H1952       H  0.82072170  0.78237936  0.94729206     0.12500
H1953       H  0.85042341  0.80580819  0.09290740     0.12500
C1954       C  0.80871160  0.81990569  0.07302333     0.62100
F1955       F  0.85763605  0.77268781  0.92519688    -0.23100
F1956       F  0.85202266  0.74024554  0.97422231    -0.20400
F1957       F  0.89405322  0.78505025  0.97067508    -0.20100
F1958       F  0.78060410  0.79834891  0.08516605    -0.20200
F1959       F  0.80718702  0.84245422  0.05283554    -0.20500
F1960       F  0.82563094  0.83194057  0.10808880    -0.23200
C1961       C  0.02491805  0.81910026  0.96358220    -0.06000
C1962       C  0.01877244  0.82217784  0.00493110    -0.00100
C1963       C  0.03862277  0.84902180  0.02576084    -0.08600
C1964       C  0.06445831  0.87059682  0.00511987    -0.06000
C1965       C  0.07084499  0.86666321  0.96443389    -0.00100
C1966       C  0.05055381  0.84061112  0.94313963    -0.08500
C1967       C  0.05676236  0.83469398  0.89965100     0.61800
H1968       H  0.00997178  0.79886639  0.94740850     0.12500
H1969       H  0.08038534  0.89060496  0.02101324     0.12500
C1970       C  0.03287333  0.85526698  0.06929161     0.62100
F1971       F  0.03520395  0.80711475  0.88546538    -0.23100
F1972       F  0.08374987  0.83564604  0.89838962    -0.20400
F1973       F  0.05752503  0.85590094  0.87342517    -0.20100
F1974       F  0.03641861  0.83694485  0.09652735    -0.20200
F1975       F  0.00434818  0.85055663  0.07227052    -0.20500
F1976       F  0.05229417  0.88434916  0.08076283    -0.23200
C1977       C  0.85351258  0.67118870  0.15223298    -0.06000
C1978       C  0.85036820  0.69643623  0.15022191    -0.00100
C1979       C  0.82455747  0.69481506  0.16758073    -0.08600
C1980       C  0.80373526  0.66849848  0.18785315    -0.06000
C1981       C  0.80694136  0.64329530  0.18988775    -0.00100
C1982       C  0.83225951  0.64460232  0.17146164    -0.08500
C1983       C  0.83733002  0.61835716  0.17272686     0.61800
H1984       H  0.87301018  0.67247328  0.13844387     0.12500
H1985       H  0.78424755  0.66717368  0.20175676     0.12500
C1986       C  0.81798598  0.71997010  0.16293452     0.62100
F1987       F  0.86488233  0.62553169  0.15731457    -0.23100
F1988       F  0.81603999  0.59538951  0.14926109    -0.20400
F1989       F  0.83576426  0.60888937  0.21278683    -0.20100
F1990       F  0.81936887  0.72746177  0.12192860    -0.20200
F1991       F  0.83831925  0.74447374  0.18503066    -0.20500
F1992       F  0.78994111  0.71209341  0.17712133    -0.23200
C1993       C  0.01541572  0.70460893  0.05248304    -0.06000
C1994       C  0.01380996  0.72169192  0.08507041    -0.00100
C1995       C  0.02831509  0.72277785  0.12250039    -0.08600
C1996       C  0.04330438  0.70649948  0.12563900    -0.06000
C1997       C  0.04369753  0.68846319  0.09346812    -0.00100
C1998       C  0.02937317  0.68756428  0.05608897    -0.08500
C1999       C  0.02680708  0.66724665  0.02086073     0.61800
H2000       H  0.00425487  0.70345212  0.02397249     0.12500
H2001       H  0.05416745  0.70696488  0.15419666     0.12500
C2002       C  0.02816735  0.74080344  0.15905230     0.62100
F2003       F  0.00981799  0.66815864  0.98880031    -0.23100
F2004       F  0.01356093  0.63823714  0.03452587    -0.20400
F2005       F  0.05457237  0.67571649  0.00543452    -0.20100
F2006       F  0.99961148  0.72909313  0.17393634    -0.20200
F2007       F  0.03897892  0.76995417  0.14733001    -0.20500
F2008       F  0.04572440  0.74067657  0.19089509    -0.23200
C2009       C  0.88623550  0.53294766  0.57931163    -0.06000
C2010       C  0.87320701  0.53743323  0.54426054    -0.00100
C2011       C  0.85371601  0.54871744  0.54911357    -0.08600
C2012       C  0.84809526  0.55497707  0.58900595    -0.06000
C2013       C  0.86024217  0.54946836  0.62449466    -0.00100
C2014       C  0.87979832  0.53813644  0.61930252    -0.08500
C2015       C  0.89293652  0.53006809  0.65517579     0.61800
H2016       H  0.90135005  0.52463162  0.57512533     0.12500
H2017       H  0.83353636  0.56399061  0.59252286     0.12500
C2018       C  0.83796623  0.55324710  0.51288409     0.62100
F2019       F  0.91010844  0.51810575  0.64271239    -0.23100
F2020       F  0.87012541  0.50897707  0.67881352    -0.20400
F2021       F  0.91085325  0.55504180  0.67832768    -0.20100
F2022       F  0.82309053  0.52731179  0.49030044    -0.20200
F2023       F  0.85840823  0.57584098  0.48817421    -0.20500
F2024       F  0.81727825  0.56087352  0.52529750    -0.23200
C2025       C  0.72887676  0.54004647  0.82962747    -0.06000
C2026       C  0.73461217  0.54971036  0.78873428    -0.00100
C2027       C  0.71318525  0.55331200  0.76693051    -0.08600
C2028       C  0.68839449  0.55039989  0.78837372    -0.06000
C2029       C  0.68390264  0.54364423  0.83079162    -0.00100
C2030       C  0.70349912  0.53606748  0.85079069    -0.08500
C2031       C  0.69872933  0.52490304  0.89450873     0.61800
H2032       H  0.74518143  0.53658368  0.84543335     0.12500
H2033       H  0.67280105  0.55453094  0.77194014     0.12500
C2034       C  0.71697269  0.56132751  0.72164801     0.62100
F2035       F  0.71790547  0.51491932  0.90541773    -0.23100
F2036       F  0.67006903  0.50143302  0.89926149    -0.20400
F2037       F  0.70373627  0.54783254  0.92051074    -0.20100
F2038       F  0.71675104  0.53868285  0.69925573    -0.20200
F2039       F  0.74355968  0.58734489  0.71534564    -0.20500
F2040       F  0.69435814  0.56541033  0.70687637    -0.23200
C2041       C  0.82719002  0.67052585  0.71214007    -0.06000
C2042       C  0.82834315  0.64824104  0.68919881    -0.00100
C2043       C  0.83449385  0.65296712  0.64637473    -0.08600
C2044       C  0.83838706  0.67927612  0.62828803    -0.06000
C2045       C  0.83647461  0.70113071  0.65095064    -0.00100
C2046       C  0.83087219  0.69679347  0.69382015    -0.08500
C2047       C  0.82738741  0.71902170  0.71990575     0.61800
H2048       H  0.82260585  0.66683291  0.74464700     0.12500
H2049       H  0.84300786  0.68306042  0.59580146     0.12500
C2050       C  0.83765708  0.63084633  0.61954626     0.62100
F2051       F  0.81840568  0.70878496  0.75946500    -0.23100
F2052       F  0.80621127  0.72427755  0.70262236    -0.20400
F2053       F  0.85414408  0.74536475  0.72246296    -0.20100
F2054       F  0.81036992  0.60536240  0.61478858    -0.20200
F2055       F  0.85752639  0.62391941  0.63728928    -0.20500
F2056       F  0.84814580  0.64205258  0.58077392    -0.23200
C2057       C  0.87478271  0.69607302  0.91553039    -0.06000
C2058       C  0.87754178  0.68752983  0.95516293    -0.00100
C2059       C  0.86657407  0.65734566  0.96474445    -0.08600
C2060       C  0.85404031  0.63647035  0.93314493    -0.06000
C2061       C  0.85331179  0.64515160  0.89263168    -0.00100
C2062       C  0.86291763  0.67530570  0.88357190    -0.08500
C2063       C  0.86256200  0.68599296  0.84028464     0.61800
H2064       H  0.88352719  0.71945988  0.90949014     0.12500
H2065       H  0.84644309  0.61331234  0.93930287     0.12500
C2066       C  0.87018045  0.64755188  0.00729249     0.62100
F2067       F  0.87451910  0.71645812  0.83865083    -0.23100
F2068       F  0.83363395  0.67283572  0.82628619    -0.20400
F2069       F  0.87904189  0.67880845  0.81442016    -0.20100
F2070       F  0.85463463  0.65417249  0.03560900    -0.20200
F2071       F  0.89988727  0.66206529  0.01809049    -0.20500
F2072       F  0.85964295  0.61731892  0.00903166    -0.23200
C2073       C  0.98252542  0.80160987  0.29095069    -0.06000
C2074       C  0.01280875  0.81081587  0.29127600    -0.00100
C2075       C  0.02715855  0.81202687  0.25370230    -0.08600
C2076       C  0.01070834  0.80506967  0.21704256    -0.06000
C2077       C  0.98034151  0.79621653  0.21631061    -0.00100
C2078       C  0.96579378  0.79405984  0.25443318    -0.08500
C2079       C  0.93284799  0.78371873  0.25767328     0.61800
H2080       H  0.97204139  0.80070815  0.31999409     0.12500
H2081       H  0.02180850  0.80665403  0.18833879     0.12500
C2082       C  0.05945290  0.81974647  0.25190481     0.62100
F2083       F  0.91624734  0.75547426  0.24141978    -0.23100
F2084       F  0.92672229  0.80320423  0.23698960    -0.20400
F2085       F  0.92384428  0.78246932  0.29795380    -0.20100
F2086       F  0.06447099  0.80296006  0.28021742    -0.20200
F2087       F  0.07792833  0.84958751  0.26015522    -0.20500
F2088       F  0.06697887  0.81404958  0.21362440    -0.23200
C2089       C  0.15215589  0.95536730  0.44112663    -0.06000
C2090       C  0.13435014  0.93084560  0.46600282    -0.00100
C2091       C  0.13761363  0.93411871  0.50933674    -0.08600
C2092       C  0.16148320  0.96026511  0.52572919    -0.06000
C2093       C  0.18159418  0.98360888  0.50049665    -0.00100
C2094       C  0.17539071  0.98200336  0.45756617    -0.08500
C2095       C  0.19315855  0.00775997  0.42849806     0.61800
H2096       H  0.14881384  0.95301584  0.40821471     0.12500
H2097       H  0.16539430  0.96182758  0.55852512     0.12500
C2098       C  0.11642957  0.91008716  0.53855253     0.62100
F2099       F  0.17825502  0.00411713  0.39180766    -0.23100
F2100       F  0.22003507  0.00973868  0.41970312    -0.20400
F2101       F  0.19797534  0.03403449  0.44593400    -0.20100
F2102       F  0.12318613  0.88767435  0.54051860    -0.20200
F2103       F  0.08743911  0.89859719  0.52534760    -0.20500
F2104       F  0.11840497  0.92109133  0.57783397    -0.23200
C2105       C  0.92383011  0.79134803  0.49781311    -0.06000
C2106       C  0.92315023  0.79364522  0.54083813    -0.00100
C2107       C  0.94880276  0.79989566  0.56364759    -0.08600
C2108       C  0.97366020  0.80245881  0.54266101    -0.06000
C2109       C  0.97372912  0.79819104  0.49985780    -0.00100
C2110       C  0.94842644  0.79329676  0.47676369    -0.08500
C2111       C  0.94643081  0.78885386  0.43045267     0.61800
H2112       H  0.90419014  0.78691560  0.48072106     0.12500
H2113       H  0.99311390  0.80681207  0.56013089     0.12500
C2114       C  0.94949426  0.80215146  0.61014422     0.62100
F2115       F  0.91949714  0.78363272  0.41484911    -0.23100
F2116       F  0.94939457  0.76467453  0.42046245    -0.20400
F2117       F  0.96851832  0.81405319  0.41151895    -0.20100
F2118       F  0.92640045  0.77642536  0.62664074    -0.20200
F2119       F  0.94682470  0.82618447  0.62190788    -0.20500
F2120       F  0.97573396  0.80598226  0.62643849    -0.23200
C2121       C  0.13881427  0.81564523  0.35276992    -0.06000
C2122       C  0.14317930  0.84446325  0.35602806    -0.00100
C2123       C  0.16859173  0.86835952  0.33725426    -0.08600
C2124       C  0.18927680  0.86255941  0.31766048    -0.06000
C2125       C  0.18508812  0.83380124  0.31486457    -0.00100
C2126       C  0.15879251  0.80969213  0.33138817    -0.08500
C2127       C  0.15076049  0.77768500  0.32431908     0.61800
H2128       H  0.11899420  0.79753780  0.36629314     0.12500
H2129       H  0.20909416  0.88063603  0.30410166     0.12500
C2130       C  0.17429804  0.89996288  0.33812252     0.62100
F2131       F  0.12216762  0.75787223  0.33719750    -0.23100
F2132       F  0.16995121  0.77157102  0.34573715    -0.20400
F2133       F  0.15241833  0.77293882  0.28286142    -0.20100
F2134       F  0.17364058  0.90846677  0.37813207    -0.20200
F2135       F  0.15290248  0.90174872  0.31523751    -0.20500
F2136       F  0.20169068  0.91995402  0.32166146    -0.23200
C2137       C  0.97336847  0.68371442  0.45584463    -0.06000
C2138       C  0.98247600  0.70345338  0.42202654    -0.00100
C2139       C  0.97373777  0.69104210  0.38210803    -0.08600
C2140       C  0.95689743  0.65983480  0.37802494    -0.06000
C2141       C  0.94987651  0.64024181  0.41161975    -0.00100
C2142       C  0.95827940  0.65259538  0.45152031    -0.08500
C2143       C  0.95289115  0.63354781  0.48952529     0.61800
H2144       H  0.97916294  0.69284410  0.48646713     0.12500
H2145       H  0.95004319  0.65036894  0.34768452     0.12500
C2146       C  0.98290416  0.71005203  0.34356833     0.62100
F2147       F  0.92274732  0.61585024  0.49618504    -0.23100
F2148       F  0.96524862  0.65049405  0.52448238    -0.20400
F2149       F  0.96556112  0.61595498  0.48443165    -0.20100
F2150       F  0.01353200  0.72622302  0.34093134    -0.20200
F2151       F  0.97167818  0.72908806  0.34451650    -0.20500
F2152       F  0.97241933  0.69310819  0.30822126    -0.23200
C2153       C  0.11566842  0.64134002  0.92477281    -0.06000
C2154       C  0.11929007  0.65881375  0.95997535    -0.00100
C2155       C  0.12957018  0.68956613  0.95411754    -0.08600
C2156       C  0.13381263  0.70073752  0.91367617    -0.06000
C2157       C  0.13013995  0.68320032  0.87878110    -0.00100
C2158       C  0.12171012  0.65304813  0.88460185    -0.08500
C2159       C  0.12049790  0.63352536  0.84911871     0.61800
H2160       H  0.10833182  0.61805993  0.92875332     0.12500
H2161       H  0.14070540  0.72387575  0.90899030     0.12500
C2162       C  0.13752496  0.71120190  0.98971086     0.62100
F2163       F  0.11567049  0.60620800  0.86237969    -0.23100
F2164       F  0.14713023  0.64726237  0.82805384    -0.20400
F2165       F  0.09769943  0.62851467  0.82273651    -0.20100
F2166       F  0.15836038  0.70989530  0.01457485    -0.20200
F2167       F  0.11257391  0.70440896  0.01239437    -0.20500
F2168       F  0.14956625  0.74024869  0.97644580    -0.23200
C2169       C  0.30302636  0.85351240  0.71576321    -0.06000
C2170       C  0.30535911  0.85559554  0.67246491    -0.00100
C2171       C  0.28192698  0.83291568  0.64876650    -0.08600
C2172       C  0.25676080  0.81048095  0.66929405    -0.06000
C2173       C  0.25392356  0.80962375  0.71229184    -0.00100
C2174       C  0.27774235  0.83120717  0.73607586    -0.08500
C2175       C  0.27604707  0.83162162  0.78261711     0.61800
H2176       H  0.32102786  0.87017109  0.73408566     0.12500
H2177       H  0.23836963  0.79364289  0.65163685     0.12500
C2178       C  0.28255138  0.83244796  0.60212595     0.62100
F2179       F  0.30048352  0.85606863  0.79955930    -0.23100
F2180       F  0.27483692  0.80644111  0.79849275    -0.20400
F2181       F  0.25101779  0.83250890  0.79442342    -0.20100
F2182       F  0.30715693  0.83126922  0.58898419    -0.20200
F2183       F  0.28338610  0.85756245  0.58669580    -0.20500
F2184       F  0.25772235  0.80802281  0.58589461    -0.23200
C2185       C  0.00593271  0.65873062  0.71391366    -0.06000
C2186       C  0.02537416  0.65616176  0.74175429    -0.00100
C2187       C  0.01272854  0.63610966  0.77516576    -0.08600
C2188       C  0.98161209  0.62141915  0.78098744    -0.06000
C2189       C  0.96265174  0.62510310  0.75386549    -0.00100
C2190       C  0.97494507  0.64348665  0.71909641    -0.08500
C2191       C  0.95563086  0.64820644  0.68849912     0.61800
H2192       H  0.01522967  0.67361763  0.68807015     0.12500
H2193       H  0.97176658  0.60714308  0.80736505     0.12500
C2194       C  0.03154700  0.62947661  0.80394709     0.62100
F2195       F  0.97227265  0.66839296  0.65823577    -0.23100
F2196       F  0.93952986  0.65889149  0.70856107    -0.20400
F2197       F  0.93635225  0.62164248  0.66943716    -0.20100
F2198       F  0.04932840  0.65409701  0.82779416    -0.20200
F2199       F  0.04904440  0.62175052  0.78124567    -0.20500
F2200       F  0.01430582  0.60610257  0.83005816    -0.23200
C2201       C  0.11578993  0.79754676  0.62840814    -0.06000
C2202       C  0.13678121  0.79012979  0.61555283    -0.00100
C2203       C  0.15007207  0.79888640  0.57665853    -0.08600
C2204       C  0.13842604  0.81108410  0.54900210    -0.06000
C2205       C  0.11450344  0.81496658  0.56020447    -0.00100
C2206       C  0.10491140  0.81072955  0.60161045    -0.08500
C2207       C  0.08237530  0.81856468  0.61765589     0.61800
H2208       H  0.10674650  0.79153107  0.65912608     0.12500
H2209       H  0.14652268  0.81559111  0.51773461     0.12500
C2210       C  0.17604314  0.79503985  0.56481843     0.62100
F2211       F  0.08526126  0.82320285  0.65966905    -0.23100
F2212       F  0.05394926  0.79565136  0.60948608    -0.20400
F2213       F  0.08656714  0.84441311  0.59962507    -0.20100
F2214       F  0.16679397  0.76518860  0.56148294    -0.20200
F2215       F  0.19788214  0.80765559  0.59462547    -0.20500
F2216       F  0.18834110  0.80865829  0.52777262    -0.23200
C2217       C  0.16774451  0.81772680  0.85660545    -0.06000
C2218       C  0.16357211  0.81521985  0.81375963    -0.00100
C2219       C  0.15645590  0.83518036  0.79371866    -0.08600
C2220       C  0.15391811  0.85652626  0.81740398    -0.06000
C2221       C  0.15839087  0.85922007  0.86023261    -0.00100
C2222       C  0.16539207  0.83917906  0.88022691    -0.08500
C2223       C  0.17034121  0.83993159  0.92629785     0.61800
H2224       H  0.17300635  0.80249915  0.87183683     0.12500
H2225       H  0.14862508  0.87173325  0.80218067     0.12500
C2226       C  0.15209123  0.83479349  0.74749412     0.62100
F2227       F  0.17416855  0.81680823  0.93941715    -0.23100
F2228       F  0.14607311  0.83763902  0.94685438    -0.20400
F2229       F  0.19565725  0.86614757  0.93679023    -0.20100
F2230       F  0.12728170  0.80844411  0.73600526    -0.20200
F2231       F  0.17689985  0.83786117  0.72758226    -0.20500
F2232       F  0.14787148  0.85770104  0.73449101    -0.23200
C2233       C  0.27647777  0.47307837  0.22764605    -0.06000
C2234       C  0.25021674  0.46010796  0.20446231    -0.00100
C2235       C  0.25196938  0.45605584  0.16143110    -0.08600
C2236       C  0.27919270  0.46186807  0.14454232    -0.06000
C2237       C  0.30460025  0.47141282  0.16876803    -0.00100
C2238       C  0.30377363  0.47899530  0.21060879    -0.08500
C2239       C  0.33118364  0.49266992  0.23788959     0.61800
H2240       H  0.27521070  0.47694089  0.26004548     0.12500
H2241       H  0.28012103  0.45662856  0.11260843     0.12500
C2242       C  0.22526926  0.44451037  0.13301870     0.62100
F2243       F  0.32712520  0.50561989  0.27251989    -0.23100
F2244       F  0.35524606  0.51454656  0.21669925    -0.20400
F2245       F  0.33739175  0.47109118  0.25075207    -0.20100
F2246       F  0.20972229  0.45907065  0.14061529    -0.20200
F2247       F  0.20702133  0.41436344  0.13884935    -0.20500
F2248       F  0.23360030  0.44896369  0.09212096    -0.23200
C2249       C  0.12276766  0.48934762  0.12787635    -0.06000
C2250       C  0.11819516  0.48436982  0.17059751    -0.00100
C2251       C  0.11226055  0.50403542  0.19368907    -0.08600
C2252       C  0.11029262  0.52682524  0.17306024    -0.06000
C2253       C  0.11311274  0.53062629  0.13017539    -0.00100
C2254       C  0.12002823  0.51174626  0.10716349    -0.08500
C2255       C  0.12339298  0.51421867  0.06079350     0.61800
H2256       H  0.12773608  0.47480750  0.11022413     0.12500
H2257       H  0.10548348  0.54156916  0.19051926     0.12500
C2258       C  0.10634301  0.50044063  0.23957016     0.62100
F2259       F  0.12759466  0.49213073  0.04426974    -0.23100
F2260       F  0.14773470  0.54126562  0.05053076    -0.20400
F2261       F  0.09811501  0.51178073  0.04310818    -0.20100
F2262       F  0.13089278  0.50332674  0.26010297    -0.20200
F2263       F  0.08193152  0.47289113  0.24724559    -0.20500
F2264       F  0.10035263  0.52152563  0.25535152    -0.23200
C2265       C  0.18445514  0.33640682  0.35856724    -0.06000
C2266       C  0.15706433  0.30976639  0.35588015    -0.00100
C2267       C  0.13334628  0.30992551  0.33457951    -0.08600
C2268       C  0.13839120  0.33630469  0.31523951    -0.06000
C2269       C  0.16589640  0.36287659  0.31727643    -0.00100
C2270       C  0.18936988  0.36301286  0.33990840    -0.08500
C2271       C  0.21967358  0.39080295  0.34418497     0.61800
H2272       H  0.20222304  0.33617485  0.37550087     0.12500
H2273       H  0.12051068  0.33638603  0.29840672     0.12500
C2274       C  0.10244433  0.28274223  0.33321582     0.62100
F2275       F  0.24006864  0.38495545  0.36285448    -0.23100
F2276       F  0.21730788  0.41146782  0.36802062    -0.20400
F2277       F  0.23066542  0.40271604  0.30590245    -0.20100
F2278       F  0.09350523  0.27156327  0.37239975    -0.20200
F2279       F  0.10249998  0.26124441  0.30844318    -0.20500
F2280       F  0.08171415  0.28933579  0.31760875    -0.23200
C2281       C  0.14933907  0.20808743  0.93746213    -0.06000
C2282       C  0.13172140  0.21511277  0.96218300    -0.00100
C2283       C  0.13542926  0.21591995  0.00550830    -0.08600
C2284       C  0.15950689  0.21422218  0.02185508    -0.06000
C2285       C  0.17941371  0.21074110  0.99673469    -0.00100
C2286       C  0.17288340  0.20532831  0.95400600    -0.08500
C2287       C  0.19047783  0.19683177  0.92552706     0.61800
H2288       H  0.14563590  0.20640157  0.90461303     0.12500
H2289       H  0.16376286  0.21727450  0.05454171     0.12500
C2290       C  0.11448245  0.21897077  0.03487170     0.62100
F2291       F  0.17575082  0.18546531  0.88873562    -0.23100
F2292       F  0.19468504  0.17522284  0.94369520    -0.20400
F2293       F  0.21765738  0.22147977  0.91675089    -0.20100
F2294       F  0.08538951  0.20112802  0.02220758    -0.20200
F2295       F  0.12118611  0.24818745  0.03646555    -0.20500
F2296       F  0.11680702  0.21035430  0.07425752    -0.23200
C2297       C  0.92201887  0.14911158  0.00177293    -0.06000
C2298       C  0.92139902  0.14732641  0.04484960    -0.00100
C2299       C  0.94742786  0.16709935  0.06694541    -0.08600
C2300       C  0.97232256  0.18896528  0.04506650    -0.06000
C2301       C  0.97239025  0.19187331  0.00191108    -0.00100
C2302       C  0.94685313  0.17068653  0.97988779    -0.08500
C2303       C  0.94527621  0.17070643  0.93352224     0.61800
H2304       H  0.90230174  0.13344313  0.98510924     0.12500
H2305       H  0.99192397  0.20457341  0.06194452     0.12500
C2306       C  0.94868961  0.16610314  0.11341738     0.62100
F2307       F  0.91841108  0.14828023  0.91851716    -0.23100
F2308       F  0.96742628  0.16637204  0.91779056    -0.20400
F2309       F  0.94873962  0.19742295  0.92003907    -0.20100
F2310       F  0.94506478  0.13908911  0.12568901    -0.20200
F2311       F  0.92647170  0.16988715  0.13026210    -0.20500
F2312       F  0.97559370  0.18816556  0.12881833    -0.23200
C2313       C  0.11303436  0.30636966  0.09354938    -0.06000
C2314       C  0.11632622  0.31583780  0.05271491    -0.00100
C2315       C  0.13231867  0.34648749  0.04321440    -0.08600
C2316       C  0.14198258  0.36687022  0.07566323    -0.06000
C2317       C  0.13611292  0.35735097  0.11649756    -0.00100
C2318       C  0.12290445  0.32676420  0.12604546    -0.08500
C2319       C  0.11730228  0.31553715  0.17005155     0.61800
H2320       H  0.10102658  0.28274577  0.09972777     0.12500
H2321       H  0.15263752  0.39044493  0.06941740     0.12500
C2322       C  0.13726799  0.35763012  0.99921950     0.62100
F2323       F  0.10294108  0.28486244  0.17192452    -0.23100
F2324       F  0.09975861  0.32459074  0.18991301    -0.20400
F2325       F  0.14404286  0.32658483  0.19058726    -0.20100
F2326       F  0.11029764  0.34700489  0.97942550    -0.20200
F2327       F  0.15410027  0.34801256  0.97874847    -0.20500
F2328       F  0.15216003  0.38831836  0.99725902    -0.23200
C2329       C  0.16438447  0.33926768  0.78960674    -0.06000
C2330       C  0.18756997  0.36178746  0.81267325    -0.00100
C2331       C  0.18827388  0.35795987  0.85574298    -0.08600
C2332       C  0.16522124  0.33207697  0.87416439    -0.06000
C2333       C  0.14173530  0.30970851  0.85120812    -0.00100
C2334       C  0.14134546  0.31334646  0.80795460    -0.08500
C2335       C  0.11621040  0.29071467  0.78119341     0.61800
H2336       H  0.16419086  0.34245912  0.75680175     0.12500
H2337       H  0.16548439  0.32898465  0.90697611     0.12500
C2338       C  0.21368804  0.38054917  0.88213259     0.62100
F2339       F  0.11842091  0.30044664  0.74112724    -0.23100
F2340       F  0.08930086  0.28550749  0.79659986    -0.20400
F2341       F  0.11673345  0.26446796  0.78025392    -0.20100
F2342       F  0.21259754  0.40645892  0.88450993    -0.20200
F2343       F  0.24050247  0.38656225  0.86531922    -0.20500
F2344       F  0.21241269  0.37031872  0.92170814    -0.23200
C2345       C  0.12941307  0.45637195  0.45702268    -0.06000
C2346       C  0.11237839  0.47032199  0.45798176    -0.00100
C2347       C  0.10074384  0.47415284  0.42033646    -0.08600
C2348       C  0.10913588  0.46651834  0.38320649    -0.06000
C2349       C  0.12773542  0.45421970  0.38205718    -0.00100
C2350       C  0.13689960  0.44767756  0.42010746    -0.08500
C2351       C  0.15420993  0.43132497  0.42280676     0.61800
H2352       H  0.13751222  0.45281457  0.48582784     0.12500
H2353       H  0.10151461  0.47072820  0.35444019     0.12500
C2354       C  0.07904320  0.48557717  0.41869278     0.62100
F2355       F  0.15636622  0.42352800  0.46276539    -0.23100
F2356       F  0.18276985  0.44922782  0.40841127    -0.20400
F2357       F  0.14005260  0.40537970  0.40011120    -0.20100
F2358       F  0.09354092  0.51549536  0.42809496    -0.20200
F2359       F  0.05615189  0.47003684  0.44619996    -0.20500
F2360       F  0.06648777  0.48202627  0.38011217    -0.23200
C2361       C  0.12354679  0.61770096  0.60940147    -0.06000
C2362       C  0.11252018  0.59230125  0.63423165    -0.00100
C2363       C  0.10818803  0.59520945  0.67689397    -0.08600
C2364       C  0.11271721  0.62254152  0.69190786    -0.06000
C2365       C  0.12117603  0.64715742  0.66636028    -0.00100
C2366       C  0.12799636  0.64508278  0.62450064    -0.08500
C2367       C  0.13919845  0.67111535  0.59501113     0.61800
H2368       H  0.12721446  0.61559830  0.57718419     0.12500
H2369       H  0.10774132  0.62422032  0.72370877     0.12500
C2370       C  0.09777381  0.56961716  0.70699065     0.62100
F2371       F  0.15149136  0.66650274  0.56012035    -0.23100
F2372       F  0.16095454  0.69676729  0.61360908    -0.20400
F2373       F  0.11591165  0.67494556  0.58287327    -0.20100
F2374       F  0.11386090  0.55534238  0.70176419    -0.20200
F2375       F  0.06789643  0.54986416  0.70091935    -0.20500
F2376       F  0.10148891  0.57921518  0.74734843    -0.23200
C2377       C  0.15998108  0.45157781  0.64303478    -0.06000
C2378       C  0.14450610  0.46122776  0.66785275    -0.00100
C2379       C  0.15444090  0.46996780  0.70896679    -0.08600
C2380       C  0.17722017  0.46557676  0.72476402    -0.06000
C2381       C  0.19091224  0.45336076  0.70095366    -0.00100
C2382       C  0.18319134  0.44780315  0.65845760    -0.08500
C2383       C  0.19878292  0.43754284  0.62889214     0.61800
H2384       H  0.15268879  0.44541074  0.61160300     0.12500
H2385       H  0.18362367  0.47059822  0.75667408     0.12500
C2386       C  0.14129249  0.48393900  0.73650024     0.62100
F2387       F  0.19272029  0.44059322  0.58836321    -0.23100
F2388       F  0.18928283  0.40790777  0.63556990    -0.20400
F2389       F  0.22921141  0.45432399  0.63414302    -0.20100
F2390       F  0.11382956  0.46239189  0.75072576    -0.20200
F2391       F  0.13839314  0.50523607  0.71498598    -0.20500
F2392       F  0.15921236  0.49771291  0.77020759    -0.23200
C2393       C  0.01918444  0.50764547  0.48436089    -0.06000
C2394       C  0.01774844  0.50466227  0.52731231    -0.00100
C2395       C  0.99142582  0.49954203  0.54758534    -0.08600
C2396       C  0.96793876  0.49792965  0.52403640    -0.06000
C2397       C  0.96931647  0.50079626  0.48101085    -0.00100
C2398       C  0.99555827  0.50562344  0.46074172    -0.08500
C2399       C  0.99900940  0.50855023  0.41444490     0.61800
H2400       H  0.03924684  0.51150896  0.46911724     0.12500
H2401       H  0.94795537  0.49420079  0.53938905     0.12500
C2402       C  0.98763552  0.49549877  0.59374547     0.62100
F2403       F  0.02499535  0.51011665  0.40124269    -0.23100
F2404       F  0.99976662  0.53429318  0.40219800    -0.20400
F2405       F  0.97561146  0.48422413  0.39561341    -0.20100
F2406       F  0.01112191  0.51905131  0.61366994    -0.20200
F2407       F  0.98632946  0.46922023  0.60443858    -0.20500
F2408       F  0.96176306  0.49406309  0.60724067    -0.23200
C2409       C  0.87233439  0.47659721  0.83764159    -0.06000
C2410       C  0.87439356  0.47635677  0.88065940    -0.00100
C2411       C  0.87288787  0.49868477  0.90341148    -0.08600
C2412       C  0.87009988  0.52079889  0.88204130    -0.06000
C2413       C  0.86983787  0.52218552  0.83862882    -0.00100
C2414       C  0.87060877  0.49917431  0.81614146    -0.08500
C2415       C  0.87129642  0.49895151  0.76968772     0.61800
H2416       H  0.87343234  0.45931449  0.82066670     0.12500
H2417       H  0.86917868  0.53797750  0.89948461     0.12500
C2418       C  0.87583037  0.50015832  0.94983372     0.62100
F2419       F  0.87318228  0.47518639  0.75431674    -0.23100
F2420       F  0.89585246  0.52469137  0.75594821    -0.20400
F2421       F  0.84556226  0.49687701  0.75439619    -0.20100
F2422       F  0.90202164  0.50140907  0.96119665    -0.20200
F2423       F  0.85210936  0.47528711  0.96696087    -0.20500
F2424       F  0.87617736  0.52494170  0.96579945    -0.23200
C2425       C  0.84435285  0.31249699  0.78797666    -0.06000
C2426       C  0.84738231  0.31289606  0.83113619    -0.00100
C2427       C  0.82730772  0.28707673  0.85343917    -0.08600
C2428       C  0.80563620  0.26213639  0.83195644    -0.06000
C2429       C  0.80367096  0.26135901  0.78896782    -0.00100
C2430       C  0.82332250  0.28702656  0.76637644    -0.08500
C2431       C  0.82345817  0.28707634  0.71975592     0.61800
H2432       H  0.85948508  0.33213915  0.77084537     0.12500
H2433       H  0.79032411  0.24236922  0.84876627     0.12500
C2434       C  0.82921963  0.28506597  0.89951516     0.62100
F2435       F  0.84639638  0.31327090  0.70400911    -0.23100
F2436       F  0.79707516  0.28378660  0.70510777    -0.20400
F2437       F  0.82693246  0.26400648  0.70545889    -0.20100
F2438       F  0.82433407  0.30616842  0.91762106    -0.20200
F2439       F  0.85695534  0.28973123  0.91008046    -0.20500
F2440       F  0.80828276  0.25761447  0.91474818    -0.23200
C2441       C  0.96838543  0.32205076  0.87442870    -0.06000
C2442       C  0.95193247  0.32490272  0.90700545    -0.00100
C2443       C  0.95034721  0.31040603  0.94467936    -0.08600
C2444       C  0.96577620  0.29468870  0.94827030    -0.06000
C2445       C  0.98350987  0.29352928  0.91651292    -0.00100
C2446       C  0.98468563  0.30734028  0.87864108    -0.08500
C2447       C  0.00431493  0.30824114  0.84345307     0.61800
H2448       H  0.96941991  0.33242691  0.84529624     0.12500
H2449       H  0.96494665  0.28383128  0.97696189     0.12500
C2450       C  0.93313227  0.31164935  0.98146079     0.62100
F2451       F  0.00393893  0.32498198  0.81070289    -0.23100
F2452       F  0.99458161  0.27985314  0.82917885    -0.20400
F2453       F  0.03338391  0.32071411  0.85674717    -0.20100
F2454       F  0.90363388  0.29990180  0.97092682    -0.20200
F2455       F  0.94487637  0.34071146  0.99437980    -0.20500
F2456       F  0.93434255  0.29549900  0.01438193    -0.23200
C2457       C  0.99901800  0.46856559  0.79610475    -0.06000
C2458       C  0.96980018  0.45508681  0.78134947    -0.00100
C2459       C  0.96413508  0.45363820  0.73884103    -0.08600
C2460       C  0.98824321  0.46400892  0.71210815    -0.06000
C2461       C  0.01714928  0.47440937  0.72673657    -0.00100
C2462       C  0.02303804  0.47784144  0.76932720    -0.08500
C2463       C  0.05399585  0.48961076  0.78671706     0.61800
H2464       H  0.00269957  0.46927928  0.82887678     0.12500
H2465       H  0.98430166  0.46177879  0.67941561     0.12500
C2466       C  0.93288750  0.44061317  0.72176641     0.62100
F2467       F  0.05546396  0.49735473  0.82766572    -0.23100
F2468       F  0.07421163  0.51459526  0.76547772    -0.20400
F2469       F  0.06193303  0.46806562  0.78360788    -0.20100
F2470       F  0.91856242  0.45353936  0.74101613    -0.20200
F2471       F  0.91707678  0.41029099  0.72810288    -0.20500
F2472       F  0.93304559  0.44557843  0.68000108    -0.23200
C2473       C  0.02286359  0.50838274  0.99904156    -0.06000
C2474       C  0.01929445  0.52710111  0.02661140    -0.00100
C2475       C  0.99039804  0.52304891  0.03207085    -0.08600
C2476       C  0.96637549  0.50012711  0.01028277    -0.06000
C2477       C  0.96999497  0.48150335  0.98253110    -0.00100
C2478       C  0.99896736  0.48583561  0.97671872    -0.08500
C2479       C  0.00502882  0.46670128  0.94771384     0.61800
H2480       H  0.04488696  0.51156811  0.99504770     0.12500
H2481       H  0.94431913  0.49682914  0.01441500     0.12500
C2482       C  0.98469651  0.54320447  0.05953918     0.62100
F2483       F  0.03398517  0.47254574  0.95063011    -0.23100
F2484       F  0.00043184  0.47221658  0.90770517    -0.20400
F2485       F  0.98649861  0.43705608  0.95692364    -0.20100
F2486       F  0.00353912  0.57251618  0.04885818    -0.20200
F2487       F  0.98923315  0.53879585  0.10007212    -0.20500
F2488       F  0.95587961  0.53767395  0.05598860    -0.23200
C2489       C  0.96664716  0.19686316  0.74226767    -0.06000
C2490       C  0.98412688  0.20052437  0.70758332    -0.00100
C2491       C  0.01486847  0.21135626  0.71294603    -0.08600
C2492       C  0.02676955  0.21822445  0.75297511    -0.06000
C2493       C  0.00909156  0.21366915  0.78816086    -0.00100
C2494       C  0.97815369  0.20240858  0.78238881    -0.08500
C2495       C  0.95660235  0.19433886  0.81778926     0.61800
H2496       H  0.94327603  0.18884072  0.73769350     0.12500
H2497       H  0.05033684  0.22699211  0.75688927     0.12500
C2498       C  0.03501259  0.21471939  0.67713800     0.62100
F2499       F  0.92741498  0.18167236  0.80478313    -0.23100
F2500       F  0.96308927  0.21935343  0.84026689    -0.20400
F2501       F  0.95855997  0.17379807  0.84219920    -0.20100
F2502       F  0.03798071  0.23715177  0.65144708    -0.20200
F2503       F  0.02317587  0.18837649  0.65540410    -0.20500
F2504       F  0.06312396  0.22176826  0.69008950    -0.23200
C2505       C  0.85287406  0.07579160  0.49798816    -0.06000
C2506       C  0.85463632  0.07721743  0.54110223    -0.00100
C2507       C  0.83336843  0.05282482  0.56425634    -0.08600
C2508       C  0.81107966  0.02794143  0.54321968    -0.06000
C2509       C  0.80809561  0.02713150  0.50003615    -0.00100
C2510       C  0.82969057  0.05168160  0.47687338    -0.08500
C2511       C  0.82794522  0.05363646  0.43043183     0.61800
H2512       H  0.86941469  0.09464691  0.48078899     0.12500
H2513       H  0.79493697  0.00917792  0.56090206     0.12500
C2514       C  0.83289555  0.05365719  0.61085449     0.62100
F2515       F  0.85044556  0.08028523  0.41509794    -0.23100
F2516       F  0.80125887  0.05147524  0.41954463    -0.20400
F2517       F  0.83045600  0.03110307  0.41201107    -0.20100
F2518       F  0.83171215  0.07834189  0.62373190    -0.20200
F2519       F  0.85812356  0.05481942  0.62647283    -0.20500
F2520       F  0.80850372  0.02881933  0.62702489    -0.23200
C2521       C  0.04256285  0.21311170  0.52297843    -0.06000
C2522       C  0.01778954  0.20541634  0.49795114    -0.00100
C2523       C  0.01831000  0.19649031  0.45686743    -0.08600
C2524       C  0.04538661  0.20117075  0.44024727    -0.06000
C2525       C  0.07129490  0.21235029  0.46420224    -0.00100
C2526       C  0.06884474  0.21546229  0.50729123    -0.08500
C2527       C  0.09336112  0.22070233  0.53730138     0.61800
H2528       H  0.04173347  0.21837776  0.55493884     0.12500
H2529       H  0.04656353  0.19695150  0.40795871     0.12500
C2530       C  0.99036841  0.18125280  0.43088509     0.62100
F2531       F  0.08250705  0.21288202  0.57687796    -0.23100
F2532       F  0.11503339  0.25034477  0.53744404    -0.20400
F2533       F  0.10574752  0.20357279  0.52662547    -0.20100
F2534       F  0.98400121  0.20200084  0.41498441    -0.20200
F2535       F  0.96672542  0.16095682  0.45442070    -0.20500
F2536       F  0.99361808  0.16589507  0.39854534    -0.23200
C2537       C  0.82641258  0.16100434  0.62296223    -0.06000
C2538       C  0.85215564  0.16720068  0.64488581    -0.00100
C2539       C  0.85497907  0.17653862  0.68643859    -0.08600
C2540       C  0.83154009  0.17852102  0.70477831    -0.06000
C2541       C  0.80572417  0.17206764  0.68300404    -0.00100
C2542       C  0.80300951  0.16313776  0.64130769    -0.08500
C2543       C  0.77511951  0.15482165  0.61670356     0.61800
H2544       H  0.82457430  0.15395194  0.59129968     0.12500
H2545       H  0.83330900  0.18546470  0.73649191     0.12500
C2546       C  0.88290779  0.18524988  0.71114906     0.62100
F2547       F  0.77564701  0.14345655  0.57850714    -0.23100
F2548       F  0.77239028  0.17958828  0.61072143    -0.20400
F2549       F  0.75050266  0.13345112  0.63754612    -0.20100
F2550       F  0.90761954  0.20544439  0.68927412    -0.20200
F2551       F  0.88492730  0.16033840  0.71951233    -0.20500
F2552       F  0.88296631  0.19830270  0.74819422    -0.23200
C2553       C  0.02574545  0.32319668  0.54392407    -0.06000
C2554       C  0.01211826  0.30311069  0.57671594    -0.00100
C2555       C  0.01544232  0.31476245  0.61700734    -0.08600
C2556       C  0.03075777  0.34576400  0.62220733    -0.06000
C2557       C  0.04225488  0.36599196  0.58907793    -0.00100
C2558       C  0.04049287  0.35432209  0.54904477    -0.08500
C2559       C  0.05332591  0.37403749  0.51145710     0.61800
H2560       H  0.02386461  0.31420991  0.51342258     0.12500
H2561       H  0.03293666  0.35438422  0.65295733     0.12500
C2562       C  0.00216000  0.29510092  0.65464590     0.62100
F2563       F  0.05019578  0.35778805  0.47628360    -0.23100
F2564       F  0.08332579  0.39349723  0.51716379    -0.20400
F2565       F  0.03881939  0.38975401  0.50478092    -0.20100
F2566       F  0.01444374  0.27716561  0.65950640    -0.20200
F2567       F  0.97169859  0.27777905  0.65031155    -0.20500
F2568       F  0.00760287  0.31143256  0.69039214    -0.23200
C2569       C  0.88647686  0.36482487  0.07958379    -0.06000
C2570       C  0.87148476  0.34761580  0.04500788    -0.00100
C2571       C  0.84877569  0.31781202  0.05123643    -0.08600
C2572       C  0.84246547  0.30634157  0.09148926    -0.06000
C2573       C  0.85674566  0.32379826  0.12645734    -0.00100
C2574       C  0.87908883  0.35399385  0.12007489    -0.08500
C2575       C  0.89394899  0.37566554  0.15514986     0.61800
H2576       H  0.90372089  0.38760599  0.07456187     0.12500
H2577       H  0.82551591  0.28338287  0.09576912     0.12500
C2578       C  0.83013965  0.29849466  0.01604609     0.62100
F2579       F  0.91325500  0.40420804  0.14155927    -0.23100
F2580       F  0.91014369  0.36701255  0.17908683    -0.20400
F2581       F  0.87237275  0.37670307  0.17837368    -0.20100
F2582       F  0.84788053  0.29355299  0.98972485    -0.20200
F2583       F  0.81740228  0.31256037  0.99561004    -0.20500
F2584       F  0.80746978  0.27114167  0.02911755    -0.23200
C2585       C  0.70887300  0.18287596  0.27623275    -0.06000
C2586       C  0.73383163  0.19960395  0.30122501    -0.00100
C2587       C  0.73075369  0.19470850  0.34437909    -0.08600
C2588       C  0.70483700  0.17013520  0.35982518    -0.06000
C2589       C  0.68107104  0.15123619  0.33422967    -0.00100
C2590       C  0.68216814  0.15925064  0.29211001    -0.08500
C2591       C  0.65541311  0.14357169  0.26382626     0.61800
H2592       H  0.71077540  0.18756934  0.24365461     0.12500
H2593       H  0.70366345  0.16492869  0.39218981     0.12500
C2594       C  0.75464420  0.21481357  0.37464171     0.62100
F2595       F  0.63042687  0.14047051  0.28330465    -0.23100
F2596       F  0.65081316  0.11594770  0.25288343    -0.20400
F2597       F  0.65930737  0.15952218  0.22811870    -0.20100
F2598       F  0.76708519  0.24420461  0.36290677    -0.20200
F2599       F  0.77638294  0.20709929  0.37656412    -0.20500
F2600       F  0.74308980  0.21228872  0.41365912    -0.23200
C2601       C  0.86905457  0.36321572  0.38256885    -0.06000
C2602       C  0.86838681  0.36103870  0.33926357    -0.00100
C2603       C  0.86858758  0.38432437  0.31608619    -0.08600
C2604       C  0.87066265  0.40895476  0.33696013    -0.06000
C2605       C  0.87347470  0.41187368  0.37977287    -0.00100
C2606       C  0.87225528  0.38845450  0.40321162    -0.08500
C2607       C  0.87627679  0.39085823  0.44950951     0.61800
H2608       H  0.86836380  0.34540642  0.40048062     0.12500
H2609       H  0.87154090  0.42712893  0.31968319     0.12500
C2610       C  0.86841236  0.38451121  0.26956817     0.62100
F2611       F  0.87665127  0.36658409  0.46603017    -0.23100
F2612       F  0.85318307  0.39256856  0.46749392    -0.20400
F2613       F  0.90291022  0.41597599  0.45935607    -0.20100
F2614       F  0.84278900  0.36007306  0.25516158    -0.20200
F2615       F  0.89317798  0.38410821  0.25529173    -0.20500
F2616       F  0.86925761  0.40957944  0.25373584    -0.23200
C2617       C  0.86025725  0.19889653  0.37819609    -0.06000
C2618       C  0.85325817  0.22003726  0.39276688    -0.00100
C2619       C  0.85519166  0.22633817  0.43530732    -0.08600
C2620       C  0.86703073  0.21346960  0.46112000    -0.06000
C2621       C  0.87717098  0.19508252  0.44571391    -0.00100
C2622       C  0.87250183  0.18632749  0.40406338    -0.08500
C2623       C  0.87981621  0.16410397  0.38533077     0.61800
H2624       H  0.85792305  0.19349643  0.34575529     0.12500
H2625       H  0.87053076  0.21954321  0.49332495     0.12500
C2626       C  0.84654711  0.24772384  0.45359782     0.62100
F2627       F  0.85417126  0.14061249  0.36920715    -0.23100
F2628       F  0.89144963  0.15272290  0.41327398    -0.20400
F2629       F  0.90010549  0.17757015  0.35395126    -0.20100
F2630       F  0.82038164  0.24326421  0.43629577    -0.20200
F2631       F  0.86887069  0.27662121  0.44665037    -0.20500
F2632       F  0.84218101  0.24373370  0.49556171    -0.23200
C2633       C  0.98011570  0.37065727  0.28530782    -0.06000
C2634       C  0.96090043  0.35089878  0.25515997    -0.00100
C2635       C  0.97321293  0.34641748  0.21912188    -0.08600
C2636       C  0.00424971  0.36179747  0.21479314    -0.06000
C2637       C  0.02379930  0.38058944  0.24568988    -0.00100
C2638       C  0.01133679  0.38517142  0.28180361    -0.08500
C2639       C  0.03034341  0.40438074  0.31717294     0.61800
H2640       H  0.97028760  0.37353384  0.31291145     0.12500
H2641       H  0.01346384  0.35799080  0.18731923     0.12500
C2642       C  0.95401681  0.32400822  0.18649175     0.62100
F2643       F  0.01350631  0.40753984  0.34742017    -0.23100
F2644       F  0.05050446  0.43241863  0.30318490    -0.20400
F2645       F  0.04529922  0.39157615  0.33498319    -0.20100
F2646       F  0.93554117  0.33264592  0.16854157    -0.20200
F2647       F  0.93710518  0.29629234  0.20410159    -0.20500
F2648       F  0.97081583  0.32145543  0.15560940    -0.23200
C2649       C  0.82466117  0.17273902  0.21346041    -0.06000
C2650       C  0.82214873  0.19410457  0.19030194    -0.00100
C2651       C  0.82443664  0.19361823  0.14679443    -0.08600
C2652       C  0.82798349  0.17107242  0.12836043    -0.06000
C2653       C  0.83040209  0.14962019  0.15151750    -0.00100
C2654       C  0.82895436  0.15065269  0.19515897    -0.08500
C2655       C  0.83128266  0.12840040  0.22283315     0.61800
H2656       H  0.82318600  0.17347758  0.24653429     0.12500
H2657       H  0.82949894  0.17039327  0.09528410     0.12500
C2658       C  0.82456658  0.21742038  0.11967169     0.62100
F2659       F  0.82566529  0.13146997  0.26352984    -0.23100
F2660       F  0.85962078  0.13255062  0.22086449    -0.20400
F2661       F  0.81082059  0.09983506  0.21075802    -0.20100
F2662       F  0.84554099  0.24520143  0.13388708    -0.20200
F2663       F  0.79684643  0.21483649  0.11975483    -0.20500
F2664       F  0.83159121  0.21516147  0.07937062    -0.23200
loop_ 
_geom_bond_atom_site_label_1 
_geom_bond_atom_site_label_2 
_geom_bond_distance 
_geom_bond_site_symmetry_2 
_ccdc_geom_bond_type 
O1           Ni7   1.941       .  S
O1           C22   1.279       .  A
O2          Ni25   1.898       .  S
O2           C11   1.264       .  A
O3           Ni7   1.909       .  S
O3          Ni25   1.906       .  S
O3          Ni19   1.932       .  S
O3           H26   0.966       .  S
C4           O21   1.285       .  A
C4           O13   1.278       .  A
C4         C2634   1.490       .  S
O5          Ni24   1.917       .  S
O5           C11   1.267       .  A
O6          Ni24   1.902       .  S
O6            C8   1.268       .  A
Ni7          O10   1.950       .  S
Ni7          O12   1.920       .  S
C8           O18   1.275       .  A
C8         C2602   1.508       .  S
O9          Ni25   1.908       .  S
O9           C15   1.269       .  A
O10          C15   1.280       .  A
C11        C2618   1.470       .  S
O12          C14   1.270       .  A
O13         Ni24   1.917       .  S
C14          O20   1.274       .  A
C14        C2650   1.499       .  S
C15        C2586   1.499       .  S
H16          O17   0.967       .  S
O17         Ni25   1.900       .  S
O17         Ni19   1.886       .  S
O17         Ni24   1.896       .  S
O18         Ni19   1.943       .  S
Ni19         O23   1.919       .  S
Ni19         O21   1.938       .  S
O20         Ni25   1.931       .  S
C22          O23   1.274       .  A
C22        C2573   1.513       .  S
O27         Ni33   1.932       .  S
O27          C48   1.277       .  A
O28         Ni51   1.883       .  S
O28          C37   1.261       .  A
O29         Ni33   1.908       .  S
O29         Ni51   1.901       .  S
O29         Ni45   1.927       .  S
O29          H52   0.966       .  S
C30          O47   1.282       .  A
C30          O39   1.281       .  A
C30        C2554   1.502   1_655  S
O31         Ni50   1.930       .  S
O31          C37   1.271       .  A
O32         Ni50   1.912       .  S
O32          C34   1.268       .  A
Ni33         O36   1.942       .  S
Ni33         O38   1.919       .  S
C34          O44   1.275       .  A
C34        C2522   1.499   1_655  S
O35         Ni51   1.895       .  S
O35          C41   1.268       .  A
O36          C41   1.278       .  A
C37        C2621   1.459       .  S
O38          C40   1.270       .  A
O39         Ni50   1.926       .  S
C40          O46   1.274       .  A
C40        C2538   1.493       .  S
C41        C2506   1.489       .  S
H42          O43   0.967       .  S
O43         Ni51   1.896       .  S
O43         Ni45   1.888       .  S
O43         Ni50   1.900       .  S
O44         Ni45   1.941       .  S
Ni45         O49   1.910       .  S
Ni45         O47   1.928       .  S
O46         Ni51   1.936       .  S
C48          O49   1.271       .  A
C48        C2490   1.492       .  S
O53         Ni59   1.935   1_554  S
O53          C74   1.278       .  A
O54         Ni77   1.889       .  S
O54          C63   1.259       .  A
O55         Ni59   1.910       .  S
O55         Ni77   1.903       .  S
O55         Ni71   1.941       .  S
O55          H78   0.966       .  S
C56          O73   1.291       .  A
C56          O65   1.279       .  A
C56        C2442   1.512       .  S
O57         Ni76   1.911       .  S
O57          C63   1.264       .  A
O58         Ni76   1.895       .  S
O58          C60   1.266       .  A
Ni59         O62   1.953       .  S
Ni59         O64   1.921       .  S
C60          O70   1.278       .  A
C60        C2426   1.505       .  S
O61         Ni77   1.899       .  S
O61          C67   1.267       .  A
O62          C67   1.279       .  A
C63        C2458   1.457       .  S
O64          C66   1.272       .  A
O65         Ni76   1.909       .  S
C66          O72   1.270       .  A
C66        C2477   1.501       .  S
C67        C2410   1.497       .  S
H68          O69   0.966       .  S
O69         Ni77   1.900       .  S
O69         Ni71   1.885       .  S
O69         Ni76   1.888       .  S
O70         Ni71   1.950       .  S
Ni71         O75   1.933       .  S
Ni71         O73   1.955       .  S
O72         Ni77   1.929       .  S
C74          O75   1.280   1_554  A
C74        C2570   1.502       .  S
O79         Ni85   1.943       .  S
O79         C100   1.277       .  A
O80        Ni103   1.880       .  S
O80          C89   1.261       .  A
O81         Ni85   1.907       .  S
O81        Ni103   1.897       .  S
O81         Ni97   1.930       .  S
O81         H104   0.966       .  S
C82          O99   1.284       .  A
C82          O91   1.280       .  A
C82        C2557   1.509       .  S
O83        Ni102   1.926       .  S
O83          C89   1.269       .  A
O84        Ni102   1.902       .  S
O84          C86   1.266       .  A
Ni85         O88   1.951       .  S
Ni85         O90   1.921       .  S
C86          O96   1.280       .  A
C86        C2378   1.501       .  S
O87        Ni103   1.909       .  S
O87          C93   1.268       .  A
O88          C93   1.282       .  A
C89        C2461   1.462       .  S
O90          C92   1.272       .  A
O91        Ni102   1.919       .  S
C92          O98   1.270       .  A
C92        C2394   1.501       .  S
C93        C2362   1.505       .  S
H94          O95   0.967       .  S
O95        Ni103   1.895       .  S
O95         Ni97   1.885       .  S
O95        Ni102   1.890       .  S
O96         Ni97   1.955       .  S
Ni97        O101   1.909       .  S
Ni97         O99   1.938       .  S
O98        Ni103   1.929       .  S
C100        O101   1.276       .  A
C100       C2346   1.499       .  S
O105       Ni111   1.934       .  S
O105        C126   1.278       .  A
O106       Ni129   1.891       .  S
O106        C115   1.261   1_556  A
O107       Ni111   1.906       .  S
O107       Ni129   1.899       .  S
O107       Ni123   1.929       .  S
O107        H130   0.966       .  S
C108        O125   1.286       .  A
C108        O117   1.279       .  A
C108       C2445   1.494   1_455  S
O109       Ni128   1.923   1_554  S
O109        C115   1.270       .  A
O110       Ni128   1.907   1_554  S
O110        C112   1.269   1_454  A
Ni111       O114   1.944       .  S
Ni111       O116   1.924       .  S
C112        O122   1.279   1_655  A
C112       C2301   1.513   1_556  S
O113       Ni129   1.904       .  S
O113        C119   1.268       .  A
O114        C119   1.279       .  A
C115       C2314   1.463       .  S
O116        C118   1.270       .  A
O117       Ni128   1.919       .  S
C118        O124   1.274       .  A
C118       C2333   1.499       .  S
C119       C2282   1.491       .  S
H120        O121   0.966       .  S
O121       Ni129   1.899       .  S
O121       Ni123   1.888       .  S
O121       Ni128   1.894       .  S
O122       Ni123   1.954       .  S
Ni123       O127   1.920       .  S
Ni123       O125   1.940       .  S
O124       Ni129   1.933       .  S
C126        O127   1.275       .  A
C126       C2493   1.507       .  S
O131       Ni137   1.933       .  S
O131        C152   1.275       .  A
O132       Ni155   1.884       .  S
O132        C141   1.261       .  A
O133       Ni137   1.900       .  S
O133       Ni155   1.894       .  S
O133       Ni149   1.927       .  S
O133        H156   0.966       .  S
C134        O151   1.285       .  A
C134        O143   1.281       .  A
C134       C2637   1.505       .  S
O135       Ni154   1.929       .  S
O135        C141   1.272       .  A
O136       Ni154   1.910       .  S
O136        C138   1.270       .  A
Ni137       O140   1.944       .  S
Ni137       O142   1.931       .  S
C138        O148   1.278       .  A
C138       C2250   1.515       .  S
O139       Ni155   1.908       .  S
O139        C145   1.268       .  A
O140        C145   1.280       .  A
C141       C2317   1.464       .  S
O142        C144   1.271       .  A
O143       Ni154   1.924       .  S
C144        O150   1.273       .  A
C144       C2269   1.504       .  S
C145       C2234   1.495       .  S
H146        O147   0.967       .  S
O147       Ni155   1.893       .  S
O147       Ni149   1.884       .  S
O147       Ni154   1.889       .  S
O148       Ni149   1.955       .  S
Ni149       O153   1.918       .  S
Ni149       O151   1.936       .  S
O150       Ni155   1.930       .  S
C152        O153   1.278       .  A
C152       C2349   1.502       .  S
O157       Ni163   1.928       .  S
O157        C178   1.269       .  A
O158       Ni181   1.929       .  S
O158        C167   1.279       .  A
O159       Ni163   1.896       .  S
O159       Ni181   1.892       .  S
O159       Ni175   1.900       .  S
O159        H182   0.966       .  S
C160        O177   1.269       .  A
C160        O169   1.278       .  A
C160       C2173   1.493       .  S
O161       Ni180   1.931       .  S
O161        C167   1.276       .  A
O162       Ni180   1.924       .  S
O162        C164   1.272       .  A
Ni163       O166   1.921       .  S
Ni163       O168   1.901       .  S
C164        O174   1.270       .  A
C164       C2218   1.510       .  S
O165       Ni181   1.948       .  S
O165        C171   1.288       .  A
O166        C171   1.280       .  A
C167       C2157   1.500       .  S
O168        C170   1.265       .  A
O169       Ni180   1.943       .  S
C170        O176   1.281       .  A
C170       C2365   1.503       .  S
C171       C2186   1.508       .  S
H172        O173   0.966       .  S
O173       Ni181   1.935       .  S
O173       Ni175   1.900       .  S
O173       Ni180   1.910       .  S
O174       Ni175   1.931       .  S
Ni175       O179   1.881       .  S
Ni175       O177   1.906       .  S
O176       Ni181   1.954       .  S
C178        O179   1.258       .  A
C178       C2202   1.454       .  S
O183       Ni189   1.918       .  S
O183        C204   1.268       .  A
O184       Ni207   1.910       .  S
O184        C193   1.275       .  A
O185       Ni189   1.887       .  S
O185       Ni207   1.885       .  S
O185       Ni201   1.898       .  S
O185        H208   0.967       .  S
C186        O203   1.269       .  A
C186        O195   1.279       .  A
C186       C2090   1.491       .  S
O187       Ni206   1.932       .  S
O187        C193   1.275       .  A
O188       Ni206   1.922       .  S
O188        C190   1.270       .  A
Ni189       O192   1.915       .  S
Ni189       O194   1.905       .  S
C190        O200   1.274       .  A
C190       C2122   1.495       .  S
O191       Ni207   1.949       .  S
O191        C197   1.288       .  A
O192        C197   1.279       .  A
C193       C2074   1.487       .  S
O194        C196   1.268   1_455  A
O195       Ni206   1.941       .  S
C196        O202   1.274   1_655  A
C196       C2109   1.506       .  S
C197       C2138   1.512   1_455  S
H198        O199   0.966       .  S
O199       Ni207   1.931       .  S
O199       Ni201   1.897       .  S
O199       Ni206   1.903       .  S
O200       Ni201   1.934       .  S
Ni201       O205   1.895       .  S
Ni201       O203   1.909       .  S
O202       Ni207   1.945       .  S
C204        O205   1.264       .  A
C204       C2205   1.472       .  S
O209       Ni215   1.915       .  S
O209        C230   1.269       .  A
O210       Ni233   1.915       .  S
O210        C219   1.274       .  A
O211       Ni215   1.896       .  S
O211       Ni233   1.886       .  S
O211       Ni227   1.915       .  S
O211        H234   0.966       .  S
C212        O229   1.274       .  A
C212        O221   1.277       .  A
C212       C2026   1.488       .  S
O213       Ni232   1.926       .  S
O213        C219   1.275       .  A
O214       Ni232   1.917       .  S
O214        C216   1.268       .  A
Ni215       O218   1.925       .  S
Ni215       O220   1.902       .  S
C216        O226   1.275       .  A
C216       C2042   1.503       .  S
O217       Ni233   1.939       .  S
O217        C223   1.285       .  A
O218        C223   1.279       .  A
C219       C2013   1.503       .  S
O220        C222   1.268       .  A
O221       Ni232   1.937       .  S
C222        O228   1.280       .  A
C222       C2413   1.514       .  S
C223       C2189   1.489       .  S
H224        O225   0.966       .  S
O225       Ni233   1.929       .  S
O225       Ni227   1.899       .  S
O225       Ni232   1.907       .  S
O226       Ni227   1.944       .  S
Ni227       O231   1.894       .  S
Ni227       O229   1.918       .  S
O228       Ni233   1.958       .  S
C230        O231   1.262       .  A
C230       C2061   1.467       .  S
O235       Ni241   1.928   1_556  S
O235        C256   1.271       .  A
O236       Ni259   1.909       .  S
O236        C245   1.275       .  A
O237       Ni241   1.889       .  S
O237       Ni259   1.887       .  S
O237       Ni253   1.895       .  S
O237        H260   0.967       .  S
C238        O255   1.271       .  A
C238        O247   1.280       .  A
C238       C1949   1.501       .  S
O239       Ni258   1.935       .  S
O239        C245   1.274       .  A
O240       Ni258   1.932       .  S
O240        C242   1.271       .  A
Ni241       O244   1.932       .  S
Ni241       O246   1.903       .  S
C242        O252   1.272       .  A
C242       C1978   1.501       .  S
O243       Ni259   1.940       .  S
O243        C249   1.285       .  A
O244        C249   1.280       .  A
C245       C2077   1.502       .  S
O246        C248   1.267       .  A
O247       Ni258   1.940       .  S
C248        O254   1.277       .  A
C248       C1962   1.509   1_655  S
C249       C1994   1.509   1_655  S
H250        O251   0.966       .  S
O251       Ni259   1.929       .  S
O251       Ni253   1.900       .  S
O251       Ni258   1.905       .  S
O252       Ni253   1.929       .  S
Ni253       O257   1.882       .  S
Ni253       O255   1.918       .  S
O254       Ni259   1.964       .  S
C256        O257   1.260   1_556  A
C256       C2058   1.455       .  S
O261       Ni267   1.922       .  S
O261        C282   1.268       .  A
O262       Ni285   1.925       .  S
O262        C271   1.277       .  A
O263       Ni267   1.898       .  S
O263       Ni285   1.890       .  S
O263       Ni279   1.905       .  S
O263        H286   0.965       .  S
C264        O281   1.272       .  A
C264        O273   1.279       .  A
C264       C2253   1.508       .  S
O265       Ni284   1.937       .  S
O265        C271   1.278       .  A
O266       Ni284   1.919       .  S
O266        C268   1.272       .  A
Ni267       O270   1.920       .  S
Ni267       O272   1.903       .  S
C268        O278   1.270       .  A
C268       C2474   1.500       .  S
O269       Ni285   1.951       .  S
O269        C275   1.289       .  A
O270        C275   1.278       .  A
C271       C2154   1.512   1_554  S
O272        C274   1.267       .  A
O273       Ni284   1.951       .  S
C274        O280   1.279       .  A
C274       C1914   1.498       .  S
C275       C1997   1.502       .  S
H276        O277   0.966       .  S
O277       Ni285   1.938       .  S
O277       Ni279   1.902       .  S
O277       Ni284   1.910       .  S
O278       Ni279   1.927       .  S
Ni279       O283   1.885       .  S
Ni279       O281   1.912       .  S
O280       Ni285   1.948       .  S
C282        O283   1.260       .  A
C282       C1933   1.460       .  S
O287       Ni293   1.920       .  S
O287        C308   1.267       .  A
O288       Ni311   1.907       .  S
O288        C297   1.272       .  A
O289       Ni293   1.893       .  S
O289       Ni311   1.887       .  S
O289       Ni305   1.902       .  S
O289        H312   0.966       .  S
C290        O307   1.271       .  A
C290        O299   1.277       .  A
C290       C2605   1.487       .  S
O291       Ni310   1.928       .  S
O291        C297   1.276       .  A
O292       Ni310   1.916       .  S
O292        C294   1.271       .  A
Ni293       O296   1.919       .  S
Ni293       O298   1.898       .  S
C294        O304   1.271       .  A
C294       C2397   1.502       .  S
O295       Ni311   1.943       .  S
O295        C301   1.286       .  A
O296        C301   1.279       .  A
C297       C2010   1.489       .  S
O298        C300   1.264       .  A
O299       Ni310   1.937       .  S
C300        O306   1.275       .  A
C300       C1898   1.495       .  S
C301       C2141   1.504       .  S
H302        O303   0.966       .  S
O303       Ni311   1.929       .  S
O303       Ni305   1.895       .  S
O303       Ni310   1.904       .  S
O304       Ni305   1.929       .  S
Ni305       O309   1.889       .  S
Ni305       O307   1.905       .  S
O306       Ni311   1.939       .  S
C308        O309   1.262       .  A
C308       C1930   1.461       .  S
O313       Ni319   1.931       .  S
O313        C334   1.278       .  A
O314       Ni337   1.879       .  S
O314        C323   1.257       .  A
O315       Ni319   1.903       .  S
O315       Ni337   1.894       .  S
O315       Ni331   1.924       .  S
O315        H338   0.966       .  S
C316        O333   1.285       .  A
C316        O325   1.278       .  A
C316       C1882   1.477       .  S
O317       Ni336   1.924       .  S
O317        C323   1.270       .  A
O318       Ni336   1.902       .  S
O318        C320   1.265       .  A
Ni319       O322   1.939       .  S
Ni319       O324   1.931       .  S
C320        O330   1.280       .  A
C320       C1850   1.503       .  S
O321       Ni337   1.904       .  S
O321        C327   1.268       .  A
O322        C327   1.279       .  A
C323       C1869   1.457       .  S
O324        C326   1.271       .  A
O325       Ni336   1.920       .  S
C326        O332   1.270       .  A
C326       C1981   1.500       .  S
C327       C1901   1.487       .  S
H328        O329   0.966       .  S
O329       Ni337   1.896       .  S
O329       Ni331   1.890       .  S
O329       Ni336   1.894       .  S
O330       Ni331   1.952       .  S
Ni331       O335   1.918       .  S
Ni331       O333   1.935       .  S
O332       Ni337   1.929       .  S
C334        O335   1.275       .  A
C334       C1837   1.502       .  S
O339       Ni345   1.935       .  S
O339        C360   1.278       .  A
O340       Ni363   1.884       .  S
O340        C349   1.259       .  A
O341       Ni345   1.907       .  S
O341       Ni363   1.901       .  S
O341       Ni357   1.932       .  S
O341        H364   0.966       .  S
C342        O359   1.286       .  A
C342        O351   1.278       .  A
C342       C1818   1.481       .  S
O343       Ni362   1.923       .  S
O343        C349   1.271       .  A
O344       Ni362   1.904       .  S
O344        C346   1.265       .  A
Ni345       O348   1.947       .  S
Ni345       O350   1.922       .  S
C346        O356   1.279       .  A
C346       C1802   1.503       .  S
O347       Ni363   1.906       .  S
O347        C353   1.269       .  A
O348        C353   1.279       .  A
C349       C1866   1.463       .  S
O350        C352   1.270       .  A
O351       Ni362   1.926       .  S
C352        O358   1.274       .  A
C352       C2045   1.497       .  S
C353       C2106   1.498       .  S
H354        O355   0.967       .  S
O355       Ni363   1.899       .  S
O355       Ni357   1.884       .  S
O355       Ni362   1.897       .  S
O356       Ni357   1.952       .  S
Ni357       O361   1.919       .  S
Ni357       O359   1.936       .  S
O358       Ni363   1.932       .  S
C360        O361   1.274       .  A
C360       C1786   1.509       .  S
O365       Ni371   1.942       .  S
O365        C386   1.279       .  A
O366       Ni389   1.889       .  S
O366        C375   1.260   1_556  A
O367       Ni371   1.907       .  S
O367       Ni389   1.897       .  S
O367       Ni383   1.934       .  S
O367        H390   0.966       .  S
C368        O385   1.287       .  A
C368        O377   1.280       .  A
C368       C1741   1.515       .  S
O369       Ni388   1.923   1_554  S
O369        C375   1.271       .  A
O370       Ni388   1.902   1_554  S
O370        C372   1.265   1_554  A
Ni371       O374   1.952       .  S
Ni371       O376   1.922       .  S
C372        O382   1.277       .  A
C372       C1946   1.498   1_556  S
O373       Ni389   1.906       .  S
O373        C379   1.271       .  A
O374        C379   1.279       .  A
C375       C1757   1.468       .  S
O376        C378   1.270       .  A
O377       Ni388   1.922       .  S
C378        O384   1.271       .  A
C378       C1773   1.488       .  S
C379       C1722   1.509       .  S
H380        O381   0.967       .  S
O381       Ni389   1.898       .  S
O381       Ni383   1.887       .  S
O381       Ni388   1.889       .  S
O382       Ni383   1.944       .  S
Ni383       O387   1.913       .  S
Ni383       O385   1.947       .  S
O384       Ni389   1.923       .  S
C386        O387   1.274       .  A
C386       C1789   1.490       .  S
O391       Ni397   1.932       .  S
O391        C412   1.276       .  A
O392       Ni415   1.885       .  S
O392        C401   1.260       .  A
O393       Ni397   1.910       .  S
O393       Ni415   1.902       .  S
O393       Ni409   1.929       .  S
O393        H416   0.966       .  S
C394        O411   1.282       .  A
C394        O403   1.278       .  A
C394       C1885   1.474       .  S
O395       Ni414   1.930       .  S
O395        C401   1.271       .  A
O396       Ni414   1.904       .  S
O396        C398   1.269       .  A
Ni397       O400   1.945       .  S
Ni397       O402   1.923       .  S
C398        O408   1.275       .  A
C398       C1674   1.510       .  S
O399       Ni415   1.903       .  S
O399        C405   1.270       .  A
O400        C405   1.277       .  A
C401       C1754   1.460       .  S
O402        C404   1.270       .  A
O403       Ni414   1.930       .  S
C404        O410   1.271       .  A
C404       C1706   1.485       .  S
C405       C1690   1.503       .  S
H406        O407   0.967       .  S
O407       Ni415   1.897       .  S
O407       Ni409   1.887       .  S
O407       Ni414   1.899       .  S
O408       Ni409   1.947       .  S
Ni409       O413   1.915       .  S
Ni409       O411   1.925       .  S
O410       Ni415   1.925       .  S
C412        O413   1.274       .  A
C412       C1661   1.484       .  S
O417       Ni423   1.924       .  S
O417        C438   1.271       .  A
O418       Ni441   1.900       .  S
O418        C427   1.263       .  A
O419       Ni423   1.918       .  S
O419       Ni441   1.914       .  S
O419       Ni435   1.943       .  S
O419        H442   0.966       .  S
C420        O437   1.289       .  A
C420        O429   1.277       .  A
C420       C1821   1.493       .  S
O421       Ni440   1.915       .  S
O421        C427   1.265       .  A
O422       Ni440   1.903       .  S
O422        C424   1.266       .  A
Ni423       O426   1.939       .  S
Ni423       O428   1.913       .  S
C424        O434   1.276       .  A
C424       C1613   1.495       .  S
O425       Ni441   1.905       .  S
O425        C431   1.268       .  A
O426        C431   1.275       .  A
C427       C1642   1.466       .  S
O428        C430   1.269       .  A
O429       Ni440   1.916       .  S
C430        O436   1.275       .  A
C430       C1626   1.490       .  S
C431       C1594   1.493       .  S
H432        O433   0.967       .  S
O433       Ni441   1.901       .  S
O433       Ni435   1.888       .  S
O433       Ni440   1.896       .  S
O434       Ni435   1.947       .  S
Ni435       O439   1.919       .  S
Ni435       O437   1.950       .  S
O436       Ni441   1.936       .  S
C438        O439   1.274       .  A
C438       C1658   1.474       .  S
O443       Ni449   1.931   1_554  S
O443        C464   1.277       .  A
O444       Ni467   1.890       .  S
O444        C453   1.262       .  A
O445       Ni449   1.903       .  S
O445       Ni467   1.896       .  S
O445       Ni461   1.925       .  S
O445        H468   0.966       .  S
C446        O463   1.287       .  A
C446        O455   1.279       .  A
C446       C1738   1.501       .  S
O447       Ni466   1.926       .  S
O447        C453   1.268       .  A
O448       Ni466   1.898       .  S
O448        C450   1.268       .  A
Ni449       O452   1.940       .  S
Ni449       O454   1.926       .  S
C450        O460   1.280       .  A
C450       C2029   1.515       .  S
O451       Ni467   1.907       .  S
O451        C457   1.273       .  A
O452        C457   1.278       .  A
C453       C1645   1.465       .  S
O454        C456   1.272       .  A
O455       Ni466   1.918       .  S
C456        O462   1.268       .  A
C456       C1578   1.505       .  S
C457       C1565   1.502       .  S
H458        O459   0.965       .  S
O459       Ni467   1.899       .  S
O459       Ni461   1.894       .  S
O459       Ni466   1.890       .  S
O460       Ni461   1.961       .  S
Ni461       O465   1.926       .  S
Ni461       O463   1.944       .  S
O462       Ni467   1.925       .  S
C464        O465   1.279   1_554  A
C464       C1834   1.506       .  S
O469       Ni475   1.911       .  S
O469        C490   1.267       .  A
O470       Ni493   1.928       .  S
O470        C479   1.278       .  A
O471       Ni475   1.885       .  S
O471       Ni493   1.884       .  S
O471       Ni487   1.905       .  S
O471        H494   0.967       .  S
C472        O489   1.270       .  A
C472        O481   1.280       .  A
C472       C1853   1.489       .  S
O473       Ni492   1.935       .  S
O473        C479   1.276       .  A
O474       Ni492   1.923       .  S
O474        C476   1.271       .  A
Ni475       O478   1.925       .  S
Ni475       O480   1.899       .  S
C476        O486   1.273       .  A
C476       C1629   1.488       .  S
O477       Ni493   1.950       .  S
O477        C483   1.293       .  A
O478        C483   1.280       .  A
C479       C1501   1.490       .  S
O480        C482   1.262       .  A
O481       Ni492   1.946       .  S
C482        O488   1.278       .  A
C482       C1517   1.504       .  S
C483       C1546   1.503       .  S
H484        O485   0.966       .  S
O485       Ni493   1.937       .  S
O485       Ni487   1.910       .  S
O485       Ni492   1.902       .  S
O486       Ni487   1.929       .  S
Ni487       O491   1.915       .  S
Ni487       O489   1.908       .  S
O488       Ni493   1.952       .  S
C490        O491   1.262       .  A
C490       C1533   1.481       .  S
O495       Ni501   1.907       .  S
O495        C516   1.262       .  A
O496       Ni519   1.920       .  S
O496        C505   1.275   1_554  A
O497       Ni501   1.892       .  S
O497       Ni519   1.890       .  S
O497       Ni513   1.905       .  S
O497        H520   0.965       .  S
C498        O515   1.270       .  A
C498        O507   1.280       .  A
C498       C1677   1.497       .  S
O499       Ni518   1.942   1_556  S
O499        C505   1.277       .  A
O500       Ni518   1.912       .  S
O500        C502   1.271       .  A
Ni501       O504   1.912       .  S
Ni501       O506   1.886       .  S
C502        O512   1.272       .  A
C502       C1581   1.499       .  S
O503       Ni519   1.955       .  S
O503        C509   1.289       .  A
O504        C509   1.278       .  A
C505       C1466   1.487       .  S
O506        C508   1.260       .  A
O507       Ni518   1.951       .  S
C508        O514   1.278       .  A
C508       C2237   1.492       .  S
C509       C1485   1.515       .  S
H510        O511   0.966       .  S
O511       Ni519   1.940       .  S
O511       Ni513   1.911       .  S
O511       Ni518   1.911       .  S
O512       Ni513   1.931       .  S
Ni513       O517   1.912       .  S
Ni513       O515   1.903       .  S
O514       Ni519   1.950       .  S
C516        O517   1.263       .  A
C516       C1530   1.467       .  S
O521       Ni527   1.917       .  S
O521        C542   1.269       .  A
O522       Ni545   1.914       .  S
O522        C531   1.276       .  A
O523       Ni527   1.895       .  S
O523       Ni545   1.882       .  S
O523       Ni539   1.906       .  S
O523        H546   0.967       .  S
C524        O541   1.269       .  A
C524        O533   1.280       .  A
C524       C2525   1.503       .  S
O525       Ni544   1.937       .  S
O525        C531   1.278       .  A
O526       Ni544   1.927       .  S
O526        C528   1.271       .  A
Ni527       O530   1.923       .  S
Ni527       O532   1.901       .  S
C528        O538   1.271       .  A
C528       C2266   1.500       .  S
O529       Ni545   1.943       .  S
O529        C535   1.286       .  A
O530        C535   1.277       .  A
C531       C1418   1.484       .  S
O532        C534   1.268       .  A
O533       Ni544   1.951       .  S
C534        O540   1.279       .  A
C534       C1437   1.511       .  S
C535       C1549   1.490       .  S
H536        O537   0.966       .  S
O537       Ni545   1.935       .  S
O537       Ni539   1.896       .  S
O537       Ni544   1.910       .  S
O538       Ni539   1.929       .  S
Ni539       O543   1.878       .  S
Ni539       O541   1.911       .  S
O540       Ni545   1.956       .  S
C542        O543   1.257       .  A
C542       C1453   1.458       .  S
O547       Ni553   1.923       .  S
O547        C568   1.270       .  A
O548       Ni571   1.922       .  S
O548        C557   1.277       .  A
O549       Ni553   1.897       .  S
O549       Ni571   1.884       .  S
O549       Ni565   1.900       .  S
O549        H572   0.967       .  S
C550        O567   1.268       .  A
C550        O559   1.281       .  A
C550       C2381   1.506       .  S
O551       Ni570   1.938       .  S
O551        C557   1.279       .  A
O552       Ni570   1.925       .  S
O552        C554   1.270       .  A
Ni553       O556   1.928       .  S
Ni553       O558   1.903       .  S
C554        O564   1.272       .  A
C554       C2330   1.496       .  S
O555       Ni571   1.934       .  S
O555        C561   1.287       .  A
O556        C561   1.277       .  A
C557       C1469   1.503       .  S
O558        C560   1.268       .  A
O559       Ni570   1.952       .  S
C560        O566   1.276       .  A
C560       C1597   1.509       .  S
C561       C1402   1.488       .  S
H562        O563   0.966       .  S
O563       Ni571   1.932       .  S
O563       Ni565   1.896       .  S
O563       Ni570   1.904       .  S
O564       Ni565   1.929       .  S
Ni565       O569   1.873       .  S
Ni565       O567   1.913       .  S
O566       Ni571   1.949       .  S
C568        O569   1.257       .  A
C568       C1450   1.450       .  S
O573       Ni579   1.930   1_556  S
O573        C594   1.271       .  A
O574       Ni597   1.908       .  S
O574        C583   1.273       .  A
O575       Ni579   1.896       .  S
O575       Ni597   1.889       .  S
O575       Ni591   1.901       .  S
O575        H598   0.966       .  S
C576        O593   1.270       .  A
C576        O585   1.281       .  A
C576       C1354   1.508       .  S
O577       Ni596   1.939       .  S
O577        C583   1.277       .  A
O578       Ni596   1.917       .  S
O578        C580   1.270       .  A
Ni579       O582   1.925       .  S
Ni579       O584   1.902   1_554  S
C580        O590   1.274       .  A
C580       C1389   1.491       .  S
O581       Ni597   1.943       .  S
O581        C587   1.286       .  A
O582        C587   1.279       .  A
C583       C1421   1.473       .  S
O584        C586   1.265   1_556  A
O585       Ni596   1.948       .  S
C586        O592   1.277       .  A
C586       C2285   1.497   1_554  S
C587       C1482   1.505       .  S
H588        O589   0.966       .  S
O589       Ni597   1.930       .  S
O589       Ni591   1.894       .  S
O589       Ni596   1.903       .  S
O590       Ni591   1.934       .  S
Ni591       O595   1.884       .  S
Ni591       O593   1.917       .  S
O592       Ni597   1.942       .  S
C594        O595   1.263   1_556  A
C594       C1370   1.466       .  S
O599       Ni605   1.919       .  S
O599        C620   1.265       .  A
O600       Ni623   1.930       .  S
O600        C609   1.278       .  A
O601       Ni605   1.896       .  S
O601       Ni623   1.894       .  S
O601       Ni617   1.902       .  S
O601        H624   0.966       .  S
C602        O619   1.269       .  A
C602        O611   1.280       .  A
C602       C1322   1.504       .  S
O603       Ni622   1.942       .  S
O603        C609   1.279       .  A
O604       Ni622   1.920       .  S
O604        C606   1.271       .  A
Ni605       O608   1.915       .  S
Ni605       O610   1.889       .  S
C606        O616   1.269       .  A
C606       C1338   1.486       .  S
O607       Ni623   1.955       .  S
O607        C613   1.290       .  A
O608        C613   1.274       .  A
C609       C1498   1.515       .  S
O610        C612   1.265       .  A
O611       Ni622   1.955       .  S
C612        O618   1.278       .  A
C612       C1562   1.496       .  S
C613       C1405   1.503       .  S
H614        O615   0.966       .  S
O615       Ni623   1.940       .  S
O615       Ni617   1.907       .  S
O615       Ni622   1.913       .  S
O616       Ni617   1.923       .  S
Ni617       O621   1.890       .  S
Ni617       O619   1.904       .  S
O618       Ni623   1.952       .  S
C620        O621   1.258       .  A
C620       C1373   1.458       .  S
O625       Ni631   1.930       .  S
O625        C646   1.271       .  A
O626       Ni649   1.917       .  S
O626        C635   1.276   1_554  A
O627       Ni631   1.898       .  S
O627       Ni649   1.891       .  S
O627       Ni643   1.900       .  S
O627        H650   0.966       .  S
C628        O645   1.270       .  A
C628        O637   1.278       .  A
C628       C1258   1.491       .  S
O629       Ni648   1.932   1_556  S
O629        C635   1.273       .  A
O630       Ni648   1.918       .  S
O630        C632   1.271       .  A
Ni631       O634   1.924       .  S
Ni631       O636   1.907       .  S
C632        O642   1.274       .  A
C632       C1306   1.503       .  S
O633       Ni649   1.943       .  S
O633        C639   1.286       .  A
O634        C639   1.280       .  A
C635       C1245   1.487       .  S
O636        C638   1.269       .  A
O637       Ni648   1.941       .  S
C638        O644   1.276       .  A
C638       C1693   1.500       .  S
C639       C1293   1.506       .  S
H640        O641   0.966       .  S
O641       Ni649   1.931       .  S
O641       Ni643   1.899       .  S
O641       Ni648   1.909       .  S
O642       Ni643   1.939       .  S
Ni643       O647   1.880       .  S
Ni643       O645   1.910       .  S
O644       Ni649   1.947       .  S
C646        O647   1.261       .  A
C646       C1277   1.468       .  S
O651       Ni657   1.918       .  S
O651        C672   1.267       .  A
O652       Ni675   1.918       .  S
O652        C661   1.275       .  A
O653       Ni657   1.898       .  S
O653       Ni675   1.888       .  S
O653       Ni669   1.898       .  S
O653        H676   0.967       .  S
C654        O671   1.269       .  A
C654        O663   1.278       .  A
C654       C1194   1.501       .  S
O655       Ni674   1.939       .  S
O655        C661   1.278       .  A
O656       Ni674   1.924       .  S
O656        C658   1.273       .  A
Ni657       O660   1.918       .  S
Ni657       O662   1.903       .  S
C658        O668   1.267       .  A
C658       C1213   1.500       .  S
O659       Ni675   1.941       .  S
O659        C665   1.286       .  A
O660        C665   1.277       .  A
C661       C1181   1.492       .  S
O662        C664   1.265       .  A
O663       Ni674   1.948       .  S
C664        O670   1.277       .  A
C664       C2589   1.501       .  S
C665       C1229   1.478       .  S
H666        O667   0.966       .  S
O667       Ni675   1.935       .  S
O667       Ni669   1.905       .  S
O667       Ni674   1.913       .  S
O668       Ni669   1.918       .  S
Ni669       O673   1.886       .  S
Ni669       O671   1.907       .  S
O670       Ni675   1.945       .  S
C672        O673   1.257       .  A
C672       C1274   1.455       .  S
O677       Ni683   1.932   1_556  S
O677        C698   1.273       .  A
O678       Ni701   1.914       .  S
O678        C687   1.273       .  A
O679       Ni683   1.897       .  S
O679       Ni701   1.887       .  S
O679       Ni695   1.897       .  S
O679        H702   0.967       .  S
C680        O697   1.270       .  A
C680        O689   1.278       .  A
C680       C2298   1.502       .  S
O681       Ni700   1.938       .  S
O681        C687   1.276       .  A
O682       Ni700   1.917       .  S
O682        C684   1.269       .  A
Ni683       O686   1.928       .  S
Ni683       O688   1.912   1_554  S
C684        O694   1.277       .  A
C684       C2653   1.502       .  S
O685       Ni701   1.944       .  S
O685        C691   1.286       .  A
O686        C691   1.281       .  A
C687       C1149   1.478       .  S
O688        C690   1.269   1_556  A
O689       Ni700   1.948       .  S
C690        O696   1.275       .  A
C690       C1725   1.501   1_545  S
C691       C1290   1.516   1_545  S
H692        O693   0.966       .  S
O693       Ni701   1.937       .  S
O693       Ni695   1.904       .  S
O693       Ni700   1.911       .  S
O694       Ni695   1.940       .  S
Ni695       O699   1.891       .  S
Ni695       O697   1.909       .  S
O696       Ni701   1.944       .  S
C698        O699   1.265   1_556  A
C698       C1162   1.468       .  S
O703       Ni709   1.922       .  S
O703        C724   1.268       .  A
O704       Ni727   1.923       .  S
O704        C713   1.277       .  A
O705       Ni709   1.889       .  S
O705       Ni727   1.891       .  S
O705       Ni721   1.895       .  S
O705        H728   0.967       .  S
C706        O723   1.273       .  A
C706        O715   1.277       .  A
C706       C2429   1.489       .  S
O707       Ni726   1.927       .  S
O707        C713   1.273       .  A
O708       Ni726   1.922       .  S
O708        C710   1.270       .  A
Ni709       O712   1.921       .  S
Ni709       O714   1.900       .  S
C710        O720   1.273       .  A
C710       C2541   1.490       .  S
O711       Ni727   1.940       .  S
O711        C717   1.286       .  A
O712        C717   1.280       .  A
C713       C1178   1.476       .  S
O714        C716   1.267       .  A
O715       Ni726   1.936       .  S
C716        O722   1.279       .  A
C716       C1114   1.515       .  S
C717       C1130   1.511       .  S
H718        O719   0.966       .  S
O719       Ni727   1.930       .  S
O719       Ni721   1.903       .  S
O719       Ni726   1.907       .  S
O720       Ni721   1.931       .  S
Ni721       O725   1.899       .  S
Ni721       O723   1.910       .  S
O722       Ni727   1.961       .  S
C724        O725   1.264       .  A
C724       C1165   1.469       .  S
O729       Ni735   1.915       .  S
O729        C750   1.267       .  A
O730       Ni753   1.914       .  S
O730        C739   1.274       .  A
O731       Ni735   1.897       .  S
O731       Ni753   1.881       .  S
O731       Ni747   1.896       .  S
O731        H754   0.974       .  S
C732        O749   1.261       .  A
C732        O741   1.281       .  A
C732       C1805   1.503       .  S
O733       Ni752   1.942       .  S
O733        C739   1.279       .  A
O734       Ni752   1.925       .  S
O734        C736   1.272       .  A
Ni735       O738   1.913       .  S
Ni735       O740   1.898       .  S
C736        O746   1.269       .  A
C736       C1709   1.484       .  S
O737       Ni753   1.947       .  S
O737        C743   1.288       .  A
O738        C743   1.276       .  A
C739       C1146   1.493       .  S
O740        C742   1.267   1_565  A
O741       Ni752   1.961       .  S
C742        O748   1.273   1_545  A
C742       C2509   1.501       .  S
C743       C1226   1.479   1_565  S
H744        O745   0.966       .  S
O745       Ni753   1.941       .  S
O745       Ni747   1.905       .  S
O745       Ni752   1.915       .  S
O746       Ni747   1.917       .  S
Ni747       O751   1.875       .  S
Ni747       O749   1.892       .  S
O748       Ni753   1.939       .  S
C750        O751   1.254       .  A
C750       C1101   1.449       .  S
O755       Ni761   1.924       .  S
O755        C776   1.270       .  A
O756       Ni779   1.922       .  S
O756        C765   1.279       .  A
O757       Ni761   1.894       .  S
O757       Ni779   1.890       .  S
O757       Ni773   1.904       .  S
O757        H780   0.966       .  S
C758        O775   1.273       .  A
C758        O767   1.279       .  A
C758       C1610   1.514       .  S
O759       Ni778   1.933       .  S
O759        C765   1.273       .  A
O760       Ni778   1.918       .  S
O760        C762   1.268       .  A
Ni761       O764   1.919       .  S
Ni761       O766   1.902       .  S
C762        O772   1.269       .  A
C762       C1770   1.487       .  S
O763       Ni779   1.947       .  S
O763        C769   1.288       .  A
O764        C769   1.278       .  A
C765       C1242   1.503       .  S
O766        C768   1.266       .  A
O767       Ni778   1.948       .  S
C768        O774   1.278       .  A
C768       C1085   1.501       .  S
C769       C1133   1.502       .  S
H770        O771   0.966       .  S
O771       Ni779   1.931       .  S
O771       Ni773   1.889       .  S
O771       Ni778   1.900       .  S
O772       Ni773   1.923       .  S
Ni773       O777   1.872       .  S
Ni773       O775   1.913       .  S
O774       Ni779   1.945       .  S
C776        O777   1.256       .  A
C776       C1098   1.457       .  S
O781       Ni787   1.935       .  S
O781        C802   1.277       .  A
O782       Ni805   1.884       .  S
O782        C791   1.260   1_556  A
O783       Ni787   1.914       .  S
O783       Ni805   1.901       .  S
O783       Ni799   1.935       .  S
O783        H806   0.966       .  S
C784        O801   1.287       .  A
C784        O793   1.278       .  A
C784       C1053   1.490   1_565  S
O785       Ni804   1.930       .  S
O785        C791   1.270       .  A
O786       Ni804   1.903       .  S
O786        C788   1.266   1_564  A
Ni787       O790   1.943       .  S
Ni787       O792   1.921       .  S
C788        O798   1.279   1_545  A
C788       C1357   1.499   1_556  S
O789       Ni805   1.916       .  S
O789        C795   1.270       .  A
O790        C795   1.278       .  A
C791       C1066   1.459       .  S
O792        C794   1.272       .  A
O793       Ni804   1.928   1_556  S
C794        O800   1.272       .  A
C794       C2221   1.511       .  S
C795       C1965   1.492       .  S
H796        O797   0.967       .  S
O797       Ni805   1.907       .  S
O797       Ni799   1.889       .  S
O797       Ni804   1.902   1_556  S
O798       Ni799   1.949       .  S
Ni799       O803   1.912       .  S
Ni799       O801   1.945       .  S
O800       Ni805   1.935       .  S
C802        O803   1.273       .  A
C802       C1034   1.501       .  S
O807       Ni813   1.935       .  S
O807        C828   1.274       .  A
O808       Ni831   1.890       .  S
O808        C817   1.263       .  A
O809       Ni813   1.905       .  S
O809       Ni831   1.900       .  S
O809       Ni825   1.932       .  S
O809        H832   0.966       .  S
C810        O827   1.287       .  A
C810        O819   1.278       .  A
C810       C1018   1.504       .  S
O811       Ni830   1.926       .  S
O811        C817   1.271       .  A
O812       Ni830   1.897       .  S
O812        C814   1.266       .  A
Ni813       O816   1.946       .  S
Ni813       O818   1.928       .  S
C814        O824   1.280       .  A
C814       C1261   1.510       .  S
O815       Ni831   1.917       .  S
O815        C821   1.271       .  A
O816        C821   1.280       .  A
C817       C1069   1.466       .  S
O818        C820   1.270       .  A
O819       Ni830   1.927       .  S
C820        O826   1.271       .  A
C820       C2125   1.494       .  S
C821       C1917   1.499       .  S
H822        O823   0.967       .  S
O823       Ni831   1.895       .  S
O823       Ni825   1.896       .  S
O823       Ni830   1.888       .  S
O824       Ni825   1.968       .  S
Ni825       O829   1.932       .  S
Ni825       O827   1.943       .  S
O826       Ni831   1.925       .  S
C828        O829   1.282       .  A
C828       C1002   1.514       .  S
O833       Ni839   1.938       .  S
O833        C854   1.275       .  A
O834       Ni857   1.895       .  S
O834        C843   1.262       .  A
O835       Ni839   1.915       .  S
O835       Ni857   1.906       .  S
O835       Ni851   1.937       .  S
O835        H858   0.966       .  S
C836        O853   1.286       .  A
C836        O845   1.279       .  A
C836        C973   1.510       .  S
O837       Ni856   1.921       .  S
O837        C843   1.267       .  A
O838       Ni856   1.898       .  S
O838        C840   1.268       .  A
Ni839       O842   1.946       .  S
Ni839       O844   1.916       .  S
C840        O850   1.277       .  A
C840       C2170   1.509       .  S
O841       Ni857   1.905       .  S
O841        C847   1.268       .  A
O842        C847   1.278       .  A
C843        C986   1.471       .  S
O844        C846   1.272       .  A
O845       Ni856   1.916       .  S
C846        O852   1.269       .  A
C846       C1210   1.500       .  S
C847       C1082   1.494       .  S
H848        O849   0.966       .  S
O849       Ni857   1.900       .  S
O849       Ni851   1.890       .  S
O849       Ni856   1.891       .  S
O850       Ni851   1.950       .  S
Ni851       O855   1.922       .  S
Ni851       O853   1.948       .  S
O852       Ni857   1.924       .  S
C854        O855   1.277       .  A
C854       C1005   1.497       .  S
O859       Ni865   1.933   1_554  S
O859        C880   1.275       .  A
O860       Ni883   1.880       .  S
O860        C869   1.258       .  A
O861       Ni865   1.914       .  S
O861       Ni883   1.900       .  S
O861       Ni877   1.938       .  S
O861        H884   0.966       .  S
C862        O879   1.289       .  A
C862        O871   1.277       .  A
C862       C1050   1.501       .  S
O863       Ni882   1.925       .  S
O863        C869   1.269       .  A
O864       Ni882   1.907       .  S
O864        C866   1.269       .  A
Ni865       O868   1.947       .  S
Ni865       O870   1.922       .  S
C866        O876   1.278       .  A
C866       C1325   1.516       .  S
O867       Ni883   1.911       .  S
O867        C873   1.270       .  A
O868        C873   1.279       .  A
C869        C989   1.456       .  S
O870        C872   1.271       .  A
O871       Ni882   1.925       .  S
C872        O878   1.273       .  A
C872       C1309   1.504       .  S
C873       C1117   1.493       .  S
H874        O875   0.966       .  S
O875       Ni883   1.905       .  S
O875       Ni877   1.887       .  S
O875       Ni882   1.899       .  S
O876       Ni877   1.956       .  S
Ni877       O881   1.913       .  S
Ni877       O879   1.952       .  S
O878       Ni883   1.938       .  S
C880        O881   1.275   1_554  A
C880        C954   1.479       .  S
O885       Ni891   1.935       .  S
O885        C906   1.278       .  A
O886       Ni909   1.891       .  S
O886        C895   1.259       .  A
O887       Ni891   1.909       .  S
O887       Ni909   1.900       .  S
O887       Ni903   1.934       .  S
O887        H910   0.966       .  S
C888        O905   1.288       .  A
C888        O897   1.277       .  A
C888        C970   1.494   1_545  S
O889       Ni908   1.914       .  S
O889        C895   1.267       .  A
O890       Ni908   1.899       .  S
O890        C892   1.264       .  A
Ni891       O894   1.946       .  S
Ni891       O896   1.920       .  S
C892        O902   1.277       .  A
C892       C2093   1.500   1_545  S
O893       Ni909   1.910       .  S
O893        C899   1.272       .  A
O894        C899   1.279       .  A
C895        C941   1.455       .  S
O896        C898   1.270       .  A
O897       Ni908   1.918       .  S
C898        O904   1.271       .  A
C898       C1341   1.485       .  S
C899       C1434   1.497       .  S
H900        O901   0.966       .  S
O901       Ni909   1.904       .  S
O901       Ni903   1.886       .  S
O901       Ni908   1.898       .  S
O902       Ni903   1.946       .  S
Ni903       O907   1.914       .  S
Ni903       O905   1.944       .  S
O904       Ni909   1.926       .  S
C906        O907   1.274       .  A
C906       C1037   1.500       .  S
O911       Ni917   1.932       .  S
O911        C932   1.274       .  A
O912       Ni935   1.886       .  S
O912        C921   1.261       .  A
O913       Ni917   1.896       .  S
O913       Ni935   1.888       .  S
O913       Ni929   1.928       .  S
O913        H936   0.966       .  S
C914        O931   1.289       .  A
C914        O923   1.279       .  A
C914       C1021   1.497       .  S
O915       Ni934   1.921       .  S
O915        C921   1.271       .  A
O916       Ni934   1.902       .  S
O916        C918   1.269       .  A
Ni917       O920   1.941       .  S
Ni917       O922   1.920       .  S
C918        O928   1.278       .  A
C918       C1197   1.508       .  S
O919       Ni935   1.918       .  S
O919        C925   1.272       .  A
O920        C925   1.281       .  A
C921        C938   1.467       .  S
O922        C924   1.268       .  A
O923       Ni934   1.920       .  S
C924        O930   1.273       .  A
C924       C1386   1.492       .  S
C925       C1514   1.500       .  S
H926        O927   0.967       .  S
O927       Ni935   1.906       .  S
O927       Ni929   1.887       .  S
O927       Ni934   1.889       .  S
O928       Ni929   1.952       .  S
Ni929       O933   1.917       .  S
Ni929       O931   1.947       .  S
O930       Ni935   1.933       .  S
C932        O933   1.279       .  A
C932        C957   1.498       .  S
C937        C938   1.402       .  A
C937        C942   1.398       .  A
C937        H944   1.083       .  S
C938        C939   1.420       .  A
C939        C940   1.401       .  A
C939        C946   1.521       .  S
C940        C941   1.397       .  A
C940        H945   1.084       .  S
C941        C942   1.414       .  A
C942        C943   1.521       .  S
C943        F947   1.385       .  S
C943        F948   1.383       .  S
C943        F949   1.379       .  S
C946        F950   1.384       .  S
C946        F951   1.383       .  S
C946        F952   1.385       .  S
C953        C954   1.397       .  A
C953        C958   1.409       .  A
C953        H960   1.083       .  S
C954        C955   1.417       .  A
C955        C956   1.406       .  A
C955        C962   1.519       .  S
C956        C957   1.407       .  A
C956        H961   1.082       .  S
C957        C958   1.432       .  A
C958        C959   1.523       .  S
C959        F963   1.385       .  S
C959        F964   1.383       .  S
C959        F965   1.383       .  S
C962        F966   1.380       .  S
C962        F967   1.384       .  S
C962        F968   1.385       .  S
C969        C970   1.412       .  A
C969        C974   1.417       .  A
C969        H976   1.083       .  S
C970        C971   1.413       .  A
C971        C972   1.406       .  A
C971        C978   1.522   1_565  S
C972        C973   1.416       .  A
C972        H977   1.081       .  S
C973        C974   1.423       .  A
C974        C975   1.520       .  S
C975        F979   1.385       .  S
C975        F980   1.382       .  S
C975        F981   1.383       .  S
C978        F982   1.383       .  S
C978        F983   1.384       .  S
C978        F984   1.385       .  S
C985        C986   1.407   1_545  A
C985        C990   1.402       .  A
C985        H992   1.079       .  S
C986        C987   1.416       .  A
C987        C988   1.398       .  A
C987        C994   1.519       .  S
C988        C989   1.400   1_565  A
C988        H993   1.083       .  S
C989        C990   1.406       .  A
C990        C991   1.517       .  S
C991        F995   1.384       .  S
C991        F996   1.384       .  S
C991        F997   1.382       .  S
C994        F998   1.382       .  S
C994        F999   1.382       .  S
C994       F1000   1.385       .  S
C1001      C1002   1.408       .  A
C1001      C1006   1.412       .  A
C1001      H1008   1.082       .  S
C1002      C1003   1.437       .  A
C1003      C1004   1.413       .  A
C1003      C1010   1.525       .  S
C1004      C1005   1.399       .  A
C1004      H1009   1.083       .  S
C1005      C1006   1.423       .  A
C1006      C1007   1.521       .  S
C1007      F1011   1.385       .  S
C1007      F1012   1.383       .  S
C1007      F1013   1.384       .  S
C1010      F1014   1.384       .  S
C1010      F1015   1.384       .  S
C1010      F1016   1.385       .  S
C1017      C1018   1.416       .  A
C1017      C1022   1.409   1_565  A
C1017      H1024   1.082       .  S
C1018      C1019   1.417       .  A
C1019      C1020   1.415   1_565  A
C1019      C1026   1.518       .  S
C1020      C1021   1.414       .  A
C1020      H1025   1.083       .  S
C1021      C1022   1.414       .  A
C1022      C1023   1.520       .  S
C1023      F1027   1.382       .  S
C1023      F1028   1.383       .  S
C1023      F1029   1.385       .  S
C1026      F1030   1.384       .  S
C1026      F1031   1.382       .  S
C1026      F1032   1.385       .  S
C1033      C1034   1.413       .  A
C1033      C1038   1.411       .  A
C1033      H1040   1.082       .  S
C1034      C1035   1.421   1_565  A
C1035      C1036   1.409       .  A
C1035      C1042   1.522       .  S
C1036      C1037   1.411       .  A
C1036      H1041   1.082       .  S
C1037      C1038   1.421   1_545  A
C1038      C1039   1.522       .  S
C1039      F1043   1.385       .  S
C1039      F1044   1.383       .  S
C1039      F1045   1.384       .  S
C1042      F1046   1.383       .  S
C1042      F1047   1.384       .  S
C1042      F1048   1.385       .  S
C1049      C1050   1.407       .  A
C1049      C1054   1.419       .  A
C1049      H1056   1.083       .  S
C1050      C1051   1.430       .  A
C1051      C1052   1.409       .  A
C1051      C1058   1.524       .  S
C1052      C1053   1.397       .  A
C1052      H1057   1.083   1_545  S
C1053      C1054   1.422       .  A
C1054      C1055   1.518       .  S
C1055      F1059   1.385       .  S
C1055      F1060   1.382   1_556  S
C1055      F1061   1.383       .  S
C1058      F1062   1.382       .  S
C1058      F1063   1.384       .  S
C1058      F1064   1.385   1_545  S
C1065      C1066   1.398       .  A
C1065      C1070   1.395       .  A
C1065      H1072   1.084       .  S
C1066      C1067   1.410       .  A
C1067      C1068   1.405       .  A
C1067      C1074   1.517       .  S
C1068      C1069   1.407       .  A
C1068      H1073   1.083       .  S
C1069      C1070   1.415       .  A
C1070      C1071   1.518       .  S
C1071      F1075   1.384       .  S
C1071      F1076   1.381       .  S
C1071      F1077   1.383       .  S
C1074      F1078   1.384       .  S
C1074      F1079   1.382       .  S
C1074      F1080   1.384       .  S
C1081      C1082   1.403       .  A
C1081      C1086   1.413       .  A
C1081      H1088   1.083       .  S
C1082      C1083   1.421       .  A
C1083      C1084   1.408       .  A
C1083      C1090   1.518       .  S
C1084      C1085   1.405       .  A
C1084      H1089   1.083       .  S
C1085      C1086   1.428       .  A
C1086      C1087   1.520       .  S
C1087      F1091   1.385       .  S
C1087      F1092   1.384       .  S
C1087      F1093   1.383       .  S
C1090      F1094   1.384       .  S
C1090      F1095   1.381       .  S
C1090      F1096   1.385       .  S
C1097      C1098   1.399       .  A
C1097      C1102   1.397       .  A
C1097      H1104   1.084       .  S
C1098      C1099   1.419       .  A
C1099      C1100   1.397       .  A
C1099      C1106   1.521       .  S
C1100      C1101   1.395       .  A
C1100      H1105   1.084       .  S
C1101      C1102   1.415       .  A
C1102      C1103   1.521       .  S
C1103      F1107   1.384       .  S
C1103      F1108   1.383       .  S
C1103      F1109   1.383       .  S
C1106      F1110   1.383       .  S
C1106      F1111   1.383       .  S
C1106      F1112   1.385       .  S
C1113      C1114   1.417       .  A
C1113      C1118   1.411       .  A
C1113      H1120   1.081       .  S
C1114      C1115   1.425       .  A
C1115      C1116   1.416       .  A
C1115      C1122   1.518       .  S
C1116      C1117   1.407       .  A
C1116      H1121   1.083       .  S
C1117      C1118   1.413       .  A
C1118      C1119   1.520       .  S
C1119      F1123   1.385       .  S
C1119      F1124   1.383       .  S
C1119      F1125   1.382       .  S
C1122      F1126   1.383       .  S
C1122      F1127   1.384       .  S
C1122      F1128   1.385       .  S
C1129      C1130   1.418       .  A
C1129      C1134   1.409   1_545  A
C1129      H1136   1.081       .  S
C1130      C1131   1.422       .  A
C1131      C1132   1.415   1_545  A
C1131      C1138   1.522       .  S
C1132      C1133   1.414       .  A
C1132      H1137   1.083       .  S
C1133      C1134   1.416       .  A
C1134      C1135   1.521       .  S
C1135      F1139   1.385       .  S
C1135      F1140   1.384       .  S
C1135      F1141   1.382       .  S
C1138      F1142   1.383       .  S
C1138      F1143   1.384       .  S
C1138      F1144   1.384       .  S
C1145      C1146   1.408       .  A
C1145      C1150   1.408   1_565  A
C1145      H1152   1.083       .  S
C1146      C1147   1.423   1_565  A
C1147      C1148   1.412       .  A
C1147      C1154   1.518       .  S
C1148      C1149   1.402       .  A
C1148      H1153   1.083       .  S
C1149      C1150   1.411       .  A
C1150      C1151   1.517   1_545  S
C1151      F1155   1.384       .  S
C1151      F1156   1.383   1_565  S
C1151      F1157   1.382       .  S
C1154      F1158   1.382       .  S
C1154      F1159   1.383   1_545  S
C1154      F1160   1.385       .  S
C1161      C1162   1.402       .  A
C1161      C1166   1.401       .  A
C1161      H1168   1.084       .  S
C1162      C1163   1.416       .  A
C1163      C1164   1.402       .  A
C1163      C1170   1.518       .  S
C1164      C1165   1.403       .  A
C1164      H1169   1.085       .  S
C1165      C1166   1.415       .  A
C1166      C1167   1.518       .  S
C1167      F1171   1.385       .  S
C1167      F1172   1.383       .  S
C1167      F1173   1.383       .  S
C1170      F1174   1.383       .  S
C1170      F1175   1.382       .  S
C1170      F1176   1.384       .  S
C1177      C1178   1.401       .  A
C1177      C1182   1.410       .  A
C1177      H1184   1.083       .  S
C1178      C1179   1.412       .  A
C1179      C1180   1.409       .  A
C1179      C1186   1.517       .  S
C1180      C1181   1.408       .  A
C1180      H1185   1.083       .  S
C1181      C1182   1.422       .  A
C1182      C1183   1.517       .  S
C1183      F1187   1.385       .  S
C1183      F1188   1.383       .  S
C1183      F1189   1.382       .  S
C1186      F1190   1.384       .  S
C1186      F1191   1.382       .  S
C1186      F1192   1.385       .  S
C1193      C1194   1.410       .  A
C1193      C1198   1.414       .  A
C1193      H1200   1.083       .  S
C1194      C1195   1.417       .  A
C1195      C1196   1.413       .  A
C1195      C1202   1.519       .  S
C1196      C1197   1.414       .  A
C1196      H1201   1.082       .  S
C1197      C1198   1.424       .  A
C1198      C1199   1.521       .  S
C1199      F1203   1.384       .  S
C1199      F1204   1.383       .  S
C1199      F1205   1.384       .  S
C1202      F1206   1.383       .  S
C1202      F1207   1.384       .  S
C1202      F1208   1.384       .  S
C1209      C1210   1.406       .  A
C1209      C1214   1.407   1_565  A
C1209      H1216   1.082       .  S
C1210      C1211   1.424   1_565  A
C1211      C1212   1.411       .  A
C1211      C1218   1.519       .  S
C1212      C1213   1.407       .  A
C1212      H1217   1.082       .  S
C1213      C1214   1.425       .  A
C1214      C1215   1.521   1_545  S
C1215      F1219   1.385       .  S
C1215      F1220   1.382       .  S
C1215      F1221   1.383   1_565  S
C1218      F1222   1.384   1_545  S
C1218      F1223   1.382       .  S
C1218      F1224   1.385       .  S
C1225      C1226   1.405       .  A
C1225      C1230   1.414       .  A
C1225      H1232   1.084       .  S
C1226      C1227   1.416   1_545  A
C1227      C1228   1.405   1_565  A
C1227      C1234   1.521       .  S
C1228      C1229   1.404       .  A
C1228      H1233   1.084       .  S
C1229      C1230   1.419       .  A
C1230      C1231   1.516       .  S
C1231      F1235   1.383       .  S
C1231      F1236   1.381       .  S
C1231      F1237   1.383       .  S
C1234      F1238   1.383       .  S
C1234      F1239   1.383       .  S
C1234      F1240   1.385       .  S
C1241      C1242   1.408       .  A
C1241      C1246   1.410       .  A
C1241      H1248   1.082       .  S
C1242      C1243   1.432       .  A
C1243      C1244   1.409       .  A
C1243      C1250   1.523       .  S
C1244      C1245   1.398       .  A
C1244      H1249   1.083       .  S
C1245      C1246   1.421       .  A
C1246      C1247   1.521       .  S
C1247      F1251   1.385       .  S
C1247      F1252   1.384       .  S
C1247      F1253   1.383       .  S
C1250      F1254   1.383       .  S
C1250      F1255   1.384       .  S
C1250      F1256   1.385       .  S
C1257      C1258   1.408       .  A
C1257      C1262   1.416       .  A
C1257      H1264   1.083       .  S
C1258      C1259   1.413       .  A
C1259      C1260   1.408       .  A
C1259      C1266   1.521       .  S
C1260      C1261   1.416       .  A
C1260      H1265   1.081       .  S
C1261      C1262   1.424       .  A
C1262      C1263   1.519       .  S
C1263      F1267   1.385       .  S
C1263      F1268   1.383       .  S
C1263      F1269   1.383       .  S
C1266      F1270   1.382       .  S
C1266      F1271   1.384       .  S
C1266      F1272   1.385       .  S
C1273      C1274   1.401   1_565  A
C1273      C1278   1.400       .  A
C1273      H1280   1.083       .  S
C1274      C1275   1.406       .  A
C1275      C1276   1.398       .  A
C1275      C1282   1.517       .  S
C1276      C1277   1.406   1_545  A
C1276      H1281   1.078       .  S
C1277      C1278   1.414       .  A
C1278      C1279   1.517       .  S
C1279      F1283   1.385       .  S
C1279      F1284   1.383       .  S
C1279      F1285   1.384       .  S
C1282      F1286   1.382       .  S
C1282      F1287   1.383       .  S
C1282      F1288   1.384       .  S
C1289      C1290   1.418       .  A
C1289      C1294   1.412       .  A
C1289      H1296   1.081       .  S
C1290      C1291   1.424       .  A
C1291      C1292   1.416       .  A
C1291      C1298   1.522       .  S
C1292      C1293   1.413       .  A
C1292      H1297   1.082       .  S
C1293      C1294   1.418       .  A
C1294      C1295   1.522       .  S
C1295      F1299   1.385   1_554  S
C1295      F1300   1.384       .  S
C1295      F1301   1.383       .  S
C1298      F1302   1.383   1_565  S
C1298      F1303   1.383       .  S
C1298      F1304   1.385       .  S
C1305      C1306   1.407   1_556  A
C1305      C1310   1.413   1_565  A
C1305      H1312   1.082       .  S
C1306      C1307   1.421   1_565  A
C1307      C1308   1.414       .  A
C1307      C1314   1.516       .  S
C1308      C1309   1.408   1_554  A
C1308      H1313   1.080       .  S
C1309      C1310   1.423       .  A
C1310      C1311   1.518       .  S
C1311      F1315   1.384   1_545  S
C1311      F1316   1.384       .  S
C1311      F1317   1.380       .  S
C1314      F1318   1.381       .  S
C1314      F1319   1.384   1_545  S
C1314      F1320   1.385       .  S
C1321      C1322   1.410       .  A
C1321      C1326   1.414       .  A
C1321      H1328   1.083       .  S
C1322      C1323   1.417       .  A
C1323      C1324   1.415       .  A
C1323      C1330   1.519       .  S
C1324      C1325   1.416       .  A
C1324      H1329   1.082       .  S
C1325      C1326   1.426       .  A
C1326      C1327   1.521       .  S
C1327      F1331   1.383       .  S
C1327      F1332   1.383       .  S
C1327      F1333   1.385       .  S
C1330      F1334   1.383       .  S
C1330      F1335   1.383       .  S
C1330      F1336   1.385       .  S
C1337      C1338   1.402       .  A
C1337      C1342   1.407       .  A
C1337      H1344   1.083       .  S
C1338      C1339   1.421       .  A
C1339      C1340   1.412       .  A
C1339      C1346   1.519       .  S
C1340      C1341   1.404       .  A
C1340      H1345   1.083       .  S
C1341      C1342   1.418       .  A
C1342      C1343   1.519       .  S
C1343      F1347   1.384       .  S
C1343      F1348   1.382       .  S
C1343      F1349   1.377       .  S
C1346      F1350   1.381       .  S
C1346      F1351   1.384       .  S
C1346      F1352   1.385       .  S
C1353      C1354   1.408       .  A
C1353      C1358   1.414       .  A
C1353      H1360   1.083       .  S
C1354      C1355   1.430   1_554  A
C1355      C1356   1.411       .  A
C1355      C1362   1.520       .  S
C1356      C1357   1.402   1_556  A
C1356      H1361   1.083       .  S
C1357      C1358   1.424       .  A
C1358      C1359   1.520       .  S
C1359      F1363   1.384       .  S
C1359      F1364   1.383   1_545  S
C1359      F1365   1.384   1_545  S
C1362      F1366   1.383       .  S
C1362      F1367   1.383       .  S
C1362      F1368   1.385       .  S
C1369      C1370   1.404       .  A
C1369      C1374   1.400       .  A
C1369      H1376   1.083       .  S
C1370      C1371   1.416       .  A
C1371      C1372   1.399       .  A
C1371      C1378   1.518       .  S
C1372      C1373   1.401       .  A
C1372      H1377   1.084       .  S
C1373      C1374   1.410       .  A
C1374      C1375   1.517       .  S
C1375      F1379   1.385       .  S
C1375      F1380   1.382       .  S
C1375      F1381   1.383       .  S
C1378      F1382   1.382       .  S
C1378      F1383   1.381       .  S
C1378      F1384   1.385       .  S
C1385      C1386   1.403       .  A
C1385      C1390   1.410       .  A
C1385      H1392   1.083       .  S
C1386      C1387   1.423       .  A
C1387      C1388   1.413       .  A
C1387      C1394   1.520       .  S
C1388      C1389   1.404       .  A
C1388      H1393   1.083       .  S
C1389      C1390   1.421       .  A
C1390      C1391   1.520       .  S
C1391      F1395   1.384       .  S
C1391      F1396   1.384       .  S
C1391      F1397   1.382       .  S
C1394      F1398   1.382       .  S
C1394      F1399   1.384       .  S
C1394      F1400   1.385       .  S
C1401      C1402   1.396       .  A
C1401      C1406   1.406       .  A
C1401      H1408   1.083       .  S
C1402      C1403   1.422       .  A
C1403      C1404   1.416       .  A
C1403      C1410   1.519       .  S
C1404      C1405   1.407       .  A
C1404      H1409   1.080       .  S
C1405      C1406   1.433       .  A
C1406      C1407   1.525       .  S
C1407      F1411   1.385       .  S
C1407      F1412   1.383       .  S
C1407      F1413   1.384       .  S
C1410      F1414   1.384       .  S
C1410      F1415   1.382       .  S
C1410      F1416   1.384       .  S
C1417      C1418   1.406       .  A
C1417      C1422   1.407       .  A
C1417      H1424   1.083       .  S
C1418      C1419   1.420       .  A
C1419      C1420   1.409       .  A
C1419      C1426   1.517       .  S
C1420      C1421   1.401       .  A
C1420      H1425   1.084       .  S
C1421      C1422   1.410       .  A
C1422      C1423   1.516       .  S
C1423      F1427   1.384       .  S
C1423      F1428   1.383       .  S
C1423      F1429   1.384       .  S
C1426      F1430   1.380       .  S
C1426      F1431   1.384       .  S
C1426      F1432   1.385       .  S
C1433      C1434   1.408       .  A
C1433      C1438   1.413       .  A
C1433      H1440   1.083       .  S
C1434      C1435   1.416       .  A
C1435      C1436   1.413       .  A
C1435      C1442   1.520       .  S
C1436      C1437   1.416       .  A
C1436      H1441   1.082       .  S
C1437      C1438   1.424       .  A
C1438      C1439   1.520       .  S
C1439      F1443   1.385       .  S
C1439      F1444   1.383       .  S
C1439      F1445   1.383       .  S
C1442      F1446   1.383       .  S
C1442      F1447   1.383       .  S
C1442      F1448   1.385       .  S
C1449      C1450   1.396       .  A
C1449      C1454   1.399       .  A
C1449      H1456   1.084       .  S
C1450      C1451   1.414       .  A
C1451      C1452   1.395       .  A
C1451      C1458   1.521       .  S
C1452      C1453   1.399       .  A
C1452      H1457   1.084       .  S
C1453      C1454   1.420       .  A
C1454      C1455   1.522       .  S
C1455      F1459   1.385       .  S
C1455      F1460   1.383       .  S
C1455      F1461   1.384       .  S
C1458      F1462   1.382       .  S
C1458      F1463   1.384       .  S
C1458      F1464   1.385       .  S
C1465      C1466   1.404       .  A
C1465      C1470   1.413       .  A
C1465      H1472   1.083       .  S
C1466      C1467   1.412       .  A
C1467      C1468   1.409       .  A
C1467      C1474   1.517       .  S
C1468      C1469   1.412       .  A
C1468      H1473   1.082       .  S
C1469      C1470   1.425       .  A
C1470      C1471   1.519       .  S
C1471      F1475   1.385       .  S
C1471      F1476   1.382       .  S
C1471      F1477   1.382       .  S
C1474      F1478   1.383       .  S
C1474      F1479   1.383   1_556  S
C1474      F1480   1.385       .  S
C1481      C1482   1.414       .  A
C1481      C1486   1.416       .  A
C1481      H1488   1.082       .  S
C1482      C1483   1.417       .  A
C1483      C1484   1.410       .  A
C1483      C1490   1.522       .  S
C1484      C1485   1.419       .  A
C1484      H1489   1.081       .  S
C1485      C1486   1.422       .  A
C1486      C1487   1.520       .  S
C1487      F1491   1.385   1_554  S
C1487      F1492   1.383       .  S
C1487      F1493   1.384       .  S
C1490      F1494   1.383       .  S
C1490      F1495   1.383       .  S
C1490      F1496   1.385       .  S
C1497      C1498   1.417       .  A
C1497      C1502   1.413       .  A
C1497      H1504   1.082       .  S
C1498      C1499   1.426       .  A
C1499      C1500   1.412       .  A
C1499      C1506   1.515       .  S
C1500      C1501   1.402       .  A
C1500      H1505   1.081       .  S
C1501      C1502   1.413       .  A
C1502      C1503   1.518       .  S
C1503      F1507   1.384       .  S
C1503      F1508   1.383       .  S
C1503      F1509   1.383       .  S
C1506      F1510   1.380       .  S
C1506      F1511   1.381       .  S
C1506      F1512   1.384       .  S
C1513      C1514   1.404       .  A
C1513      C1518   1.413       .  A
C1513      H1520   1.083       .  S
C1514      C1515   1.426       .  A
C1515      C1516   1.410       .  A
C1515      C1522   1.521       .  S
C1516      C1517   1.405       .  A
C1516      H1521   1.083       .  S
C1517      C1518   1.429       .  A
C1518      C1519   1.521       .  S
C1519      F1523   1.385       .  S
C1519      F1524   1.384       .  S
C1519      F1525   1.383       .  S
C1522      F1526   1.384       .  S
C1522      F1527   1.382       .  S
C1522      F1528   1.385       .  S
C1529      C1530   1.403       .  A
C1529      C1534   1.412       .  A
C1529      H1536   1.083       .  S
C1530      C1531   1.415       .  A
C1531      C1532   1.392       .  A
C1531      C1538   1.521       .  S
C1532      C1533   1.403       .  A
C1532      H1537   1.082       .  S
C1533      C1534   1.422       .  A
C1534      C1535   1.517       .  S
C1535      F1539   1.385       .  S
C1535      F1540   1.381       .  S
C1535      F1541   1.383       .  S
C1538      F1542   1.382       .  S
C1538      F1543   1.382       .  S
C1538      F1544   1.385       .  S
C1545      C1546   1.406       .  A
C1545      C1550   1.413       .  A
C1545      H1552   1.083       .  S
C1546      C1547   1.434       .  A
C1547      C1548   1.411       .  A
C1547      C1554   1.525       .  S
C1548      C1549   1.398       .  A
C1548      H1553   1.083       .  S
C1549      C1550   1.421       .  A
C1550      C1551   1.519       .  S
C1551      F1555   1.385       .  S
C1551      F1556   1.383       .  S
C1551      F1557   1.382       .  S
C1554      F1558   1.383       .  S
C1554      F1559   1.384       .  S
C1554      F1560   1.385       .  S
C1561      C1562   1.411       .  A
C1561      C1566   1.412       .  A
C1561      H1568   1.083       .  S
C1562      C1563   1.418       .  A
C1563      C1564   1.407       .  A
C1563      C1570   1.519       .  S
C1564      C1565   1.412       .  A
C1564      H1569   1.082       .  S
C1565      C1566   1.422       .  A
C1566      C1567   1.521       .  S
C1567      F1571   1.385       .  S
C1567      F1572   1.384       .  S
C1567      F1573   1.383       .  S
C1570      F1574   1.384       .  S
C1570      F1575   1.382       .  S
C1570      F1576   1.384       .  S
C1577      C1578   1.410   1_554  A
C1577      C1582   1.412       .  A
C1577      H1584   1.082       .  S
C1578      C1579   1.426       .  A
C1579      C1580   1.409       .  A
C1579      C1586   1.521       .  S
C1580      C1581   1.406   1_556  A
C1580      H1585   1.082       .  S
C1581      C1582   1.421       .  A
C1582      C1583   1.520       .  S
C1583      F1587   1.384       .  S
C1583      F1588   1.383       .  S
C1583      F1589   1.383       .  S
C1586      F1590   1.381       .  S
C1586      F1591   1.382       .  S
C1586      F1592   1.385       .  S
C1593      C1594   1.406       .  A
C1593      C1598   1.411       .  A
C1593      H1600   1.083       .  S
C1594      C1595   1.416       .  A
C1595      C1596   1.411       .  A
C1595      C1602   1.520       .  S
C1596      C1597   1.415       .  A
C1596      H1601   1.082       .  S
C1597      C1598   1.424       .  A
C1598      C1599   1.519       .  S
C1599      F1603   1.385       .  S
C1599      F1604   1.382       .  S
C1599      F1605   1.384       .  S
C1602      F1606   1.383       .  S
C1602      F1607   1.383       .  S
C1602      F1608   1.385       .  S
C1609      C1610   1.415       .  A
C1609      C1614   1.410       .  A
C1609      H1616   1.082       .  S
C1610      C1611   1.426       .  A
C1611      C1612   1.416       .  A
C1611      C1618   1.519       .  S
C1612      C1613   1.407       .  A
C1612      H1617   1.083       .  S
C1613      C1614   1.416       .  A
C1614      C1615   1.521       .  S
C1615      F1619   1.385       .  S
C1615      F1620   1.382       .  S
C1615      F1621   1.383       .  S
C1618      F1622   1.383       .  S
C1618      F1623   1.383       .  S
C1618      F1624   1.385       .  S
C1625      C1626   1.404       .  A
C1625      C1630   1.411       .  A
C1625      H1632   1.083       .  S
C1626      C1627   1.422       .  A
C1627      C1628   1.410       .  A
C1627      C1634   1.520       .  S
C1628      C1629   1.402       .  A
C1628      H1633   1.083       .  S
C1629      C1630   1.420       .  A
C1630      C1631   1.517       .  S
C1631      F1635   1.385       .  S
C1631      F1636   1.382       .  S
C1631      F1637   1.383       .  S
C1634      F1638   1.384       .  S
C1634      F1639   1.382       .  S
C1634      F1640   1.385       .  S
C1641      C1642   1.404       .  A
C1641      C1646   1.403       .  A
C1641      H1648   1.084       .  S
C1642      C1643   1.414       .  A
C1643      C1644   1.400       .  A
C1643      C1650   1.519       .  S
C1644      C1645   1.401       .  A
C1644      H1649   1.082       .  S
C1645      C1646   1.413       .  A
C1646      C1647   1.517       .  S
C1647      F1651   1.385       .  S
C1647      F1652   1.383       .  S
C1647      F1653   1.382       .  S
C1650      F1654   1.383       .  S
C1650      F1655   1.382       .  S
C1650      F1656   1.385       .  S
C1657      C1658   1.402       .  A
C1657      C1662   1.411       .  A
C1657      H1664   1.083       .  S
C1658      C1659   1.414       .  A
C1659      C1660   1.405       .  A
C1659      C1666   1.518       .  S
C1660      C1661   1.404       .  A
C1660      H1665   1.083       .  S
C1661      C1662   1.420       .  A
C1662      C1663   1.517       .  S
C1663      F1667   1.385       .  S
C1663      F1668   1.382       .  S
C1663      F1669   1.382       .  S
C1666      F1670   1.383       .  S
C1666      F1671   1.383       .  S
C1666      F1672   1.385       .  S
C1673      C1674   1.415       .  A
C1673      C1678   1.412       .  A
C1673      H1680   1.081       .  S
C1674      C1675   1.426       .  A
C1675      C1676   1.412       .  A
C1675      C1682   1.522       .  S
C1676      C1677   1.408       .  A
C1676      H1681   1.083       .  S
C1677      C1678   1.416       .  A
C1678      C1679   1.520       .  S
C1679      F1683   1.385       .  S
C1679      F1684   1.382       .  S
C1679      F1685   1.383       .  S
C1682      F1686   1.383       .  S
C1682      F1687   1.384       .  S
C1682      F1688   1.385       .  S
C1689      C1690   1.411       .  A
C1689      C1694   1.409       .  A
C1689      H1696   1.082       .  S
C1690      C1691   1.420       .  A
C1691      C1692   1.415       .  A
C1691      C1698   1.518       .  S
C1692      C1693   1.411       .  A
C1692      H1697   1.083       .  S
C1693      C1694   1.420       .  A
C1694      C1695   1.521       .  S
C1695      F1699   1.385       .  S
C1695      F1700   1.383       .  S
C1695      F1701   1.383       .  S
C1698      F1702   1.383       .  S
C1698      F1703   1.384       .  S
C1698      F1704   1.384       .  S
C1705      C1706   1.404       .  A
C1705      C1710   1.409       .  A
C1705      H1712   1.083       .  S
C1706      C1707   1.419       .  A
C1707      C1708   1.410       .  A
C1707      C1714   1.518       .  S
C1708      C1709   1.404       .  A
C1708      H1713   1.083       .  S
C1709      C1710   1.417       .  A
C1710      C1711   1.518       .  S
C1711      F1715   1.384       .  S
C1711      F1716   1.382       .  S
C1711      F1717   1.384       .  S
C1714      F1718   1.382       .  S
C1714      F1719   1.382       .  S
C1714      F1720   1.385       .  S
C1721      C1722   1.411   1_554  A
C1721      C1726   1.408       .  A
C1721      H1728   1.082       .  S
C1722      C1723   1.423       .  A
C1723      C1724   1.418       .  A
C1723      C1730   1.518       .  S
C1724      C1725   1.410   1_556  A
C1724      H1729   1.083   1_565  S
C1725      C1726   1.421       .  A
C1726      C1727   1.521       .  S
C1727      F1731   1.385       .  S
C1727      F1732   1.382       .  S
C1727      F1733   1.381       .  S
C1730      F1734   1.382       .  S
C1730      F1735   1.383       .  S
C1730      F1736   1.385       .  S
C1737      C1738   1.412       .  A
C1737      C1742   1.414       .  A
C1737      H1744   1.082       .  S
C1738      C1739   1.416       .  A
C1739      C1740   1.410       .  A
C1739      C1746   1.522       .  S
C1740      C1741   1.419       .  A
C1740      H1745   1.081       .  S
C1741      C1742   1.423       .  A
C1742      C1743   1.520       .  S
C1743      F1747   1.385       .  S
C1743      F1748   1.382       .  S
C1743      F1749   1.383       .  S
C1746      F1750   1.383   1_556  S
C1746      F1751   1.384       .  S
C1746      F1752   1.385   1_556  S
C1753      C1754   1.399       .  A
C1753      C1758   1.404       .  A
C1753      H1760   1.083       .  S
C1754      C1755   1.414       .  A
C1755      C1756   1.398       .  A
C1755      C1762   1.521       .  S
C1756      C1757   1.401       .  A
C1756      H1761   1.083       .  S
C1757      C1758   1.419       .  A
C1758      C1759   1.520       .  S
C1759      F1763   1.385   1_554  S
C1759      F1764   1.383   1_554  S
C1759      F1765   1.383   1_554  S
C1762      F1766   1.383       .  S
C1762      F1767   1.383       .  S
C1762      F1768   1.385       .  S
C1769      C1770   1.405       .  A
C1769      C1774   1.411       .  A
C1769      H1776   1.083       .  S
C1770      C1771   1.419       .  A
C1771      C1772   1.408       .  A
C1771      C1778   1.520       .  S
C1772      C1773   1.404       .  A
C1772      H1777   1.083       .  S
C1773      C1774   1.421       .  A
C1774      C1775   1.519       .  S
C1775      F1779   1.385       .  S
C1775      F1780   1.382       .  S
C1775      F1781   1.383       .  S
C1778      F1782   1.384       .  S
C1778      F1783   1.382       .  S
C1778      F1784   1.385       .  S
C1785      C1786   1.415       .  A
C1785      C1790   1.408       .  A
C1785      H1792   1.081       .  S
C1786      C1787   1.427       .  A
C1787      C1788   1.413       .  A
C1787      C1794   1.521       .  S
C1788      C1789   1.406       .  A
C1788      H1793   1.083       .  S
C1789      C1790   1.414       .  A
C1790      C1791   1.521       .  S
C1791      F1795   1.385       .  S
C1791      F1796   1.382       .  S
C1791      F1797   1.383       .  S
C1794      F1798   1.382       .  S
C1794      F1799   1.383       .  S
C1794      F1800   1.385       .  S
C1801      C1802   1.403       .  A
C1801      C1806   1.409       .  A
C1801      H1808   1.083       .  S
C1802      C1803   1.428       .  A
C1803      C1804   1.415       .  A
C1803      C1810   1.519       .  S
C1804      C1805   1.404       .  A
C1804      H1809   1.083       .  S
C1805      C1806   1.430       .  A
C1806      C1807   1.521       .  S
C1807      F1811   1.385       .  S
C1807      F1812   1.382       .  S
C1807      F1813   1.384       .  S
C1810      F1814   1.383       .  S
C1810      F1815   1.384       .  S
C1810      F1816   1.385       .  S
C1817      C1818   1.399       .  A
C1817      C1822   1.407       .  A
C1817      H1824   1.084       .  S
C1818      C1819   1.422       .  A
C1819      C1820   1.412       .  A
C1819      C1826   1.517       .  S
C1820      C1821   1.404       .  A
C1820      H1825   1.084       .  S
C1821      C1822   1.426       .  A
C1822      C1823   1.523       .  S
C1823      F1827   1.385       .  S
C1823      F1828   1.384       .  S
C1823      F1829   1.382       .  S
C1826      F1830   1.383       .  S
C1826      F1831   1.382       .  S
C1826      F1832   1.384       .  S
C1833      C1834   1.414       .  A
C1833      C1838   1.411       .  A
C1833      H1840   1.082       .  S
C1834      C1835   1.420       .  A
C1835      C1836   1.408       .  A
C1835      C1842   1.516       .  S
C1836      C1837   1.410       .  A
C1836      H1841   1.082       .  S
C1837      C1838   1.420       .  A
C1838      C1839   1.520       .  S
C1839      F1843   1.385       .  S
C1839      F1844   1.381       .  S
C1839      F1845   1.384       .  S
C1842      F1846   1.382   1_554  S
C1842      F1847   1.383   1_554  S
C1842      F1848   1.385       .  S
C1849      C1850   1.405       .  A
C1849      C1854   1.406       .  A
C1849      H1856   1.084       .  S
C1850      C1851   1.432       .  A
C1851      C1852   1.414       .  A
C1851      C1858   1.521       .  S
C1852      C1853   1.401       .  A
C1852      H1857   1.083       .  S
C1853      C1854   1.420       .  A
C1854      C1855   1.519       .  S
C1855      F1859   1.384       .  S
C1855      F1860   1.381       .  S
C1855      F1861   1.383       .  S
C1858      F1862   1.384       .  S
C1858      F1863   1.383       .  S
C1858      F1864   1.385       .  S
C1865      C1866   1.400       .  A
C1865      C1870   1.398       .  A
C1865      H1872   1.084       .  S
C1866      C1867   1.419       .  A
C1867      C1868   1.400       .  A
C1867      C1874   1.519       .  S
C1868      C1869   1.397       .  A
C1868      H1873   1.084       .  S
C1869      C1870   1.415       .  A
C1870      C1871   1.521       .  S
C1871      F1875   1.385       .  S
C1871      F1876   1.383       .  S
C1871      F1877   1.383       .  S
C1874      F1878   1.383       .  S
C1874      F1879   1.382       .  S
C1874      F1880   1.385       .  S
C1881      C1882   1.404       .  A
C1881      C1886   1.402       .  A
C1881      H1888   1.084       .  S
C1882      C1883   1.420       .  A
C1883      C1884   1.413       .  A
C1883      C1890   1.517       .  S
C1884      C1885   1.404       .  A
C1884      H1889   1.085       .  S
C1885      C1886   1.412       .  A
C1886      C1887   1.520       .  S
C1887      F1891   1.385       .  S
C1887      F1892   1.383       .  S
C1887      F1893   1.383       .  S
C1890      F1894   1.383       .  S
C1890      F1895   1.380       .  S
C1890      F1896   1.382       .  S
C1897      C1898   1.405       .  A
C1897      C1902   1.407       .  A
C1897      H1904   1.083       .  S
C1898      C1899   1.427       .  A
C1899      C1900   1.408       .  A
C1899      C1906   1.520       .  S
C1900      C1901   1.400       .  A
C1900      H1905   1.083       .  S
C1901      C1902   1.423       .  A
C1902      C1903   1.521       .  S
C1903      F1907   1.385       .  S
C1903      F1908   1.384       .  S
C1903      F1909   1.382       .  S
C1906      F1910   1.384       .  S
C1906      F1911   1.383       .  S
C1906      F1912   1.385       .  S
C1913      C1914   1.402       .  A
C1913      C1918   1.408       .  A
C1913      H1920   1.083       .  S
C1914      C1915   1.426       .  A
C1915      C1916   1.414       .  A
C1915      C1922   1.519       .  S
C1916      C1917   1.405       .  A
C1916      H1921   1.083       .  S
C1917      C1918   1.425       .  A
C1918      C1919   1.516       .  S
C1919      F1923   1.385       .  S
C1919      F1924   1.384       .  S
C1919      F1925   1.381       .  S
C1922      F1926   1.384       .  S
C1922      F1927   1.383       .  S
C1922      F1928   1.385       .  S
C1929      C1930   1.402       .  A
C1929      C1934   1.399   1_655  A
C1929      H1936   1.080   1_655  S
C1930      C1931   1.411       .  A
C1931      C1932   1.399       .  A
C1931      C1938   1.518       .  S
C1932      C1933   1.403   1_655  A
C1932      H1937   1.082       .  S
C1933      C1934   1.410       .  A
C1934      C1935   1.517       .  S
C1935      F1939   1.385       .  S
C1935      F1940   1.382       .  S
C1935      F1941   1.383       .  S
C1938      F1942   1.382       .  S
C1938      F1943   1.384       .  S
C1938      F1944   1.385       .  S
C1945      C1946   1.404   1_556  A
C1945      C1950   1.409       .  A
C1945      H1952   1.083       .  S
C1946      C1947   1.425       .  A
C1947      C1948   1.412       .  A
C1947      C1954   1.521       .  S
C1948      C1949   1.406       .  A
C1948      H1953   1.083       .  S
C1949      C1950   1.427   1_554  A
C1950      C1951   1.521       .  S
C1951      F1955   1.386       .  S
C1951      F1956   1.383       .  S
C1951      F1957   1.383       .  S
C1954      F1958   1.383       .  S
C1954      F1959   1.384       .  S
C1954      F1960   1.385       .  S
C1961      C1962   1.413   1_556  A
C1961      C1966   1.408       .  A
C1961      H1968   1.081       .  S
C1962      C1963   1.425       .  A
C1963      C1964   1.418       .  A
C1963      C1970   1.519       .  S
C1964      C1965   1.407   1_554  A
C1964      H1969   1.083       .  S
C1965      C1966   1.413       .  A
C1966      C1967   1.520       .  S
C1967      F1971   1.385       .  S
C1967      F1972   1.383       .  S
C1967      F1973   1.382       .  S
C1970      F1974   1.383       .  S
C1970      F1975   1.384       .  S
C1970      F1976   1.385       .  S
C1977      C1978   1.407       .  A
C1977      C1982   1.414       .  A
C1977      H1984   1.083       .  S
C1978      C1979   1.423       .  A
C1979      C1980   1.415       .  A
C1979      C1986   1.520       .  S
C1980      C1981   1.407       .  A
C1980      H1985   1.083       .  S
C1981      C1982   1.421       .  A
C1982      C1983   1.519       .  S
C1983      F1987   1.385       .  S
C1983      F1988   1.382       .  S
C1983      F1989   1.384       .  S
C1986      F1990   1.384       .  S
C1986      F1991   1.382       .  S
C1986      F1992   1.385       .  S
C1993      C1994   1.415       .  A
C1993      C1998   1.408       .  A
C1993      H2000   1.081       .  S
C1994      C1995   1.420       .  A
C1995      C1996   1.417       .  A
C1995      C2002   1.520       .  S
C1996      C1997   1.415       .  A
C1996      H2001   1.083       .  S
C1997      C1998   1.416       .  A
C1998      C1999   1.521       .  S
C1999      F2003   1.385   1_554  S
C1999      F2004   1.383       .  S
C1999      F2005   1.379       .  S
C2002      F2006   1.383   1_455  S
C2002      F2007   1.383       .  S
C2002      F2008   1.385       .  S
C2009      C2010   1.407       .  A
C2009      C2014   1.406       .  A
C2009      H2016   1.082       .  S
C2010      C2011   1.416       .  A
C2011      C2012   1.407       .  A
C2011      C2018   1.522       .  S
C2012      C2013   1.415       .  A
C2012      H2017   1.081       .  S
C2013      C2014   1.422       .  A
C2014      C2015   1.517       .  S
C2015      F2019   1.385       .  S
C2015      F2020   1.380       .  S
C2015      F2021   1.382       .  S
C2018      F2022   1.384       .  S
C2018      F2023   1.383       .  S
C2018      F2024   1.385       .  S
C2025      C2026   1.403       .  A
C2025      C2030   1.413       .  A
C2025      H2032   1.083       .  S
C2026      C2027   1.413       .  A
C2027      C2028   1.410       .  A
C2027      C2034   1.520       .  S
C2028      C2029   1.417       .  A
C2028      H2033   1.081       .  S
C2029      C2030   1.424       .  A
C2030      C2031   1.512       .  S
C2031      F2035   1.385       .  S
C2031      F2036   1.384       .  S
C2031      F2037   1.378       .  S
C2034      F2038   1.383       .  S
C2034      F2039   1.383       .  S
C2034      F2040   1.385       .  S
C2041      C2042   1.408       .  A
C2041      C2046   1.416       .  A
C2041      H2048   1.082       .  S
C2042      C2043   1.426       .  A
C2043      C2044   1.411       .  A
C2043      C2050   1.521       .  S
C2044      C2045   1.403       .  A
C2044      H2049   1.082       .  S
C2045      C2046   1.422       .  A
C2046      C2047   1.520       .  S
C2047      F2051   1.384       .  S
C2047      F2052   1.383       .  S
C2047      F2053   1.383       .  S
C2050      F2054   1.382       .  S
C2050      F2055   1.383       .  S
C2050      F2056   1.385       .  S
C2057      C2058   1.397       .  A
C2057      C2062   1.401       .  A
C2057      H2064   1.084       .  S
C2058      C2059   1.413       .  A
C2059      C2060   1.398       .  A
C2059      C2066   1.521   1_556  S
C2060      C2061   1.402       .  A
C2060      H2065   1.083       .  S
C2061      C2062   1.420       .  A
C2062      C2063   1.520       .  S
C2063      F2067   1.385       .  S
C2063      F2068   1.382       .  S
C2063      F2069   1.384       .  S
C2066      F2070   1.382       .  S
C2066      F2071   1.384       .  S
C2066      F2072   1.385       .  S
C2073      C2074   1.400   1_655  A
C2073      C2078   1.408       .  A
C2073      H2080   1.083       .  S
C2074      C2075   1.421       .  A
C2075      C2076   1.407       .  A
C2075      C2082   1.523       .  S
C2076      C2077   1.409   1_455  A
C2076      H2081   1.082       .  S
C2077      C2078   1.431       .  A
C2078      C2079   1.524       .  S
C2079      F2083   1.384       .  S
C2079      F2084   1.383       .  S
C2079      F2085   1.385       .  S
C2082      F2086   1.384       .  S
C2082      F2087   1.383       .  S
C2082      F2088   1.384       .  S
C2089      C2090   1.401       .  A
C2089      C2094   1.410       .  A
C2089      H2096   1.083       .  S
C2090      C2091   1.422       .  A
C2091      C2092   1.408       .  A
C2091      C2098   1.519       .  S
C2092      C2093   1.406       .  A
C2092      H2097   1.083       .  S
C2093      C2094   1.428       .  A
C2094      C2095   1.520   1_565  S
C2095      F2099   1.385       .  S
C2095      F2100   1.383       .  S
C2095      F2101   1.384       .  S
C2098      F2102   1.381       .  S
C2098      F2103   1.384       .  S
C2098      F2104   1.385       .  S
C2105      C2106   1.409       .  A
C2105      C2110   1.413       .  A
C2105      H2112   1.083       .  S
C2106      C2107   1.416       .  A
C2107      C2108   1.412       .  A
C2107      C2114   1.519       .  S
C2108      C2109   1.413       .  A
C2108      H2113   1.082       .  S
C2109      C2110   1.425       .  A
C2110      C2111   1.522       .  S
C2111      F2115   1.385       .  S
C2111      F2116   1.384       .  S
C2111      F2117   1.383       .  S
C2114      F2118   1.384       .  S
C2114      F2119   1.383       .  S
C2114      F2120   1.384       .  S
C2121      C2122   1.406       .  A
C2121      C2126   1.412       .  A
C2121      H2128   1.083       .  S
C2122      C2123   1.423       .  A
C2123      C2124   1.411       .  A
C2123      C2130   1.520       .  S
C2124      C2125   1.405       .  A
C2124      H2129   1.083       .  S
C2125      C2126   1.421       .  A
C2126      C2127   1.520       .  S
C2127      F2131   1.385       .  S
C2127      F2132   1.382       .  S
C2127      F2133   1.384       .  S
C2130      F2134   1.383       .  S
C2130      F2135   1.382       .  S
C2130      F2136   1.385       .  S
C2137      C2138   1.417       .  A
C2137      C2142   1.409       .  A
C2137      H2144   1.081       .  S
C2138      C2139   1.421       .  A
C2139      C2140   1.414       .  A
C2139      C2146   1.521       .  S
C2140      C2141   1.415       .  A
C2140      H2145   1.082       .  S
C2141      C2142   1.418       .  A
C2142      C2143   1.523       .  S
C2143      F2147   1.382       .  S
C2143      F2148   1.385       .  S
C2143      F2149   1.384       .  S
C2146      F2150   1.384   1_655  S
C2146      F2151   1.383       .  S
C2146      F2152   1.385       .  S
C2153      C2154   1.417       .  A
C2153      C2158   1.412       .  A
C2153      H2160   1.081       .  S
C2154      C2155   1.425       .  A
C2155      C2156   1.413       .  A
C2155      C2162   1.522       .  S
C2156      C2157   1.410       .  A
C2156      H2161   1.082       .  S
C2157      C2158   1.416       .  A
C2158      C2159   1.520       .  S
C2159      F2163   1.385       .  S
C2159      F2164   1.384       .  S
C2159      F2165   1.380       .  S
C2162      F2166   1.383   1_556  S
C2162      F2167   1.380   1_556  S
C2162      F2168   1.385       .  S
C2169      C2170   1.416       .  A
C2169      C2174   1.410       .  A
C2169      H2176   1.082       .  S
C2170      C2171   1.425       .  A
C2171      C2172   1.413       .  A
C2171      C2178   1.521       .  S
C2172      C2173   1.408       .  A
C2172      H2177   1.083       .  S
C2173      C2174   1.414       .  A
C2174      C2175   1.520       .  S
C2175      F2179   1.385       .  S
C2175      F2180   1.383       .  S
C2175      F2181   1.384       .  S
C2178      F2182   1.383       .  S
C2178      F2183   1.383       .  S
C2178      F2184   1.384       .  S
C2185      C2186   1.415       .  A
C2185      C2190   1.407   1_455  A
C2185      H2192   1.081       .  S
C2186      C2187   1.422       .  A
C2187      C2188   1.416   1_455  A
C2187      C2194   1.517       .  S
C2188      C2189   1.408       .  A
C2188      H2193   1.083       .  S
C2189      C2190   1.413       .  A
C2190      C2191   1.522       .  S
C2191      F2195   1.385       .  S
C2191      F2196   1.384       .  S
C2191      F2197   1.383       .  S
C2194      F2198   1.383       .  S
C2194      F2199   1.383       .  S
C2194      F2200   1.385       .  S
C2201      C2202   1.396       .  A
C2201      C2206   1.395       .  A
C2201      H2208   1.084       .  S
C2202      C2203   1.407       .  A
C2203      C2204   1.404       .  A
C2203      C2210   1.516       .  S
C2204      C2205   1.409       .  A
C2204      H2209   1.083       .  S
C2205      C2206   1.418       .  A
C2206      C2207   1.518       .  S
C2207      F2211   1.385       .  S
C2207      F2212   1.383       .  S
C2207      F2213   1.383       .  S
C2210      F2214   1.382       .  S
C2210      F2215   1.384       .  S
C2210      F2216   1.385       .  S
C2217      C2218   1.409       .  A
C2217      C2222   1.413       .  A
C2217      H2224   1.082       .  S
C2218      C2219   1.426       .  A
C2219      C2220   1.414       .  A
C2219      C2226   1.522       .  S
C2220      C2221   1.410       .  A
C2220      H2225   1.082       .  S
C2221      C2222   1.426       .  A
C2222      C2223   1.520       .  S
C2223      F2227   1.385       .  S
C2223      F2228   1.384       .  S
C2223      F2229   1.382       .  S
C2226      F2230   1.383       .  S
C2226      F2231   1.383       .  S
C2226      F2232   1.385       .  S
C2233      C2234   1.403       .  A
C2233      C2238   1.410       .  A
C2233      H2240   1.083       .  S
C2234      C2235   1.428       .  A
C2235      C2236   1.407       .  A
C2235      C2242   1.520       .  S
C2236      C2237   1.400       .  A
C2236      H2241   1.083       .  S
C2237      C2238   1.426       .  A
C2238      C2239   1.521       .  S
C2239      F2243   1.385       .  S
C2239      F2244   1.384       .  S
C2239      F2245   1.383       .  S
C2242      F2246   1.383       .  S
C2242      F2247   1.381       .  S
C2242      F2248   1.385       .  S
C2249      C2250   1.415       .  A
C2249      C2254   1.417       .  A
C2249      H2256   1.082       .  S
C2250      C2251   1.426       .  A
C2251      C2252   1.413       .  A
C2251      C2258   1.520       .  S
C2252      C2253   1.409       .  A
C2252      H2257   1.082       .  S
C2253      C2254   1.421       .  A
C2254      C2255   1.519       .  S
C2255      F2259   1.385       .  S
C2255      F2260   1.383       .  S
C2255      F2261   1.384       .  S
C2258      F2262   1.383       .  S
C2258      F2263   1.381       .  S
C2258      F2264   1.384       .  S
C2265      C2266   1.407       .  A
C2265      C2270   1.415       .  A
C2265      H2272   1.083       .  S
C2266      C2267   1.421       .  A
C2267      C2268   1.412       .  A
C2267      C2274   1.520       .  S
C2268      C2269   1.408       .  A
C2268      H2273   1.083       .  S
C2269      C2270   1.425       .  A
C2270      C2271   1.520       .  S
C2271      F2275   1.385       .  S
C2271      F2276   1.383       .  S
C2271      F2277   1.384       .  S
C2274      F2278   1.384       .  S
C2274      F2279   1.382       .  S
C2274      F2280   1.385       .  S
C2281      C2282   1.403       .  A
C2281      C2286   1.412       .  A
C2281      H2288   1.083       .  S
C2282      C2283   1.423   1_556  A
C2283      C2284   1.406       .  A
C2283      C2290   1.520       .  S
C2284      C2285   1.404   1_554  A
C2284      H2289   1.083       .  S
C2285      C2286   1.427       .  A
C2286      C2287   1.520       .  S
C2287      F2291   1.385       .  S
C2287      F2292   1.384       .  S
C2287      F2293   1.382       .  S
C2290      F2294   1.384       .  S
C2290      F2295   1.382       .  S
C2290      F2296   1.385       .  S
C2297      C2298   1.406       .  A
C2297      C2302   1.410   1_554  A
C2297      H2304   1.083   1_554  S
C2298      C2299   1.419       .  A
C2299      C2300   1.417       .  A
C2299      C2306   1.518       .  S
C2300      C2301   1.414       .  A
C2300      H2305   1.082       .  S
C2301      C2302   1.423   1_554  A
C2302      C2303   1.513       .  S
C2303      F2307   1.385       .  S
C2303      F2308   1.383       .  S
C2303      F2309   1.383       .  S
C2306      F2310   1.383       .  S
C2306      F2311   1.383       .  S
C2306      F2312   1.385       .  S
C2313      C2314   1.400       .  A
C2313      C2318   1.402       .  A
C2313      H2320   1.084       .  S
C2314      C2315   1.416       .  A
C2315      C2316   1.400       .  A
C2315      C2322   1.520   1_554  S
C2316      C2317   1.400       .  A
C2316      H2321   1.084       .  S
C2317      C2318   1.418       .  A
C2318      C2319   1.521       .  S
C2319      F2323   1.385       .  S
C2319      F2324   1.384       .  S
C2319      F2325   1.383       .  S
C2322      F2326   1.384       .  S
C2322      F2327   1.382       .  S
C2322      F2328   1.385       .  S
C2329      C2330   1.405       .  A
C2329      C2334   1.413       .  A
C2329      H2336   1.083       .  S
C2330      C2331   1.421       .  A
C2331      C2332   1.413       .  A
C2331      C2338   1.520       .  S
C2332      C2333   1.407       .  A
C2332      H2337   1.082       .  S
C2333      C2334   1.424       .  A
C2334      C2335   1.520       .  S
C2335      F2339   1.385       .  S
C2335      F2340   1.383       .  S
C2335      F2341   1.382       .  S
C2338      F2342   1.382       .  S
C2338      F2343   1.384       .  S
C2338      F2344   1.384       .  S
C2345      C2346   1.403       .  A
C2345      C2350   1.409       .  A
C2345      H2352   1.082       .  S
C2346      C2347   1.426       .  A
C2347      C2348   1.411       .  A
C2347      C2354   1.522       .  S
C2348      C2349   1.407       .  A
C2348      H2353   1.082       .  S
C2349      C2350   1.430       .  A
C2350      C2351   1.524       .  S
C2351      F2355   1.385       .  S
C2351      F2356   1.383       .  S
C2351      F2357   1.384       .  S
C2354      F2358   1.382       .  S
C2354      F2359   1.384       .  S
C2354      F2360   1.385       .  S
C2361      C2362   1.405       .  A
C2361      C2366   1.414       .  A
C2361      H2368   1.083       .  S
C2362      C2363   1.429       .  A
C2363      C2364   1.409       .  A
C2363      C2370   1.520       .  S
C2364      C2365   1.402       .  A
C2364      H2369   1.083       .  S
C2365      C2366   1.428       .  A
C2366      C2367   1.520       .  S
C2367      F2371   1.385       .  S
C2367      F2372   1.384       .  S
C2367      F2373   1.383       .  S
C2370      F2374   1.384       .  S
C2370      F2375   1.383       .  S
C2370      F2376   1.385       .  S
C2377      C2378   1.403       .  A
C2377      C2382   1.412       .  A
C2377      H2384   1.083       .  S
C2378      C2379   1.425       .  A
C2379      C2380   1.414       .  A
C2379      C2386   1.520       .  S
C2380      C2381   1.406       .  A
C2380      H2385   1.083       .  S
C2381      C2382   1.430       .  A
C2382      C2383   1.521       .  S
C2383      F2387   1.385       .  S
C2383      F2388   1.382       .  S
C2383      F2389   1.384       .  S
C2386      F2390   1.382       .  S
C2386      F2391   1.384       .  S
C2386      F2392   1.385       .  S
C2393      C2394   1.406       .  A
C2393      C2398   1.410   1_455  A
C2393      H2400   1.082       .  S
C2394      C2395   1.423   1_455  A
C2395      C2396   1.410       .  A
C2395      C2402   1.518       .  S
C2396      C2397   1.408       .  A
C2396      H2401   1.082       .  S
C2397      C2398   1.424       .  A
C2398      C2399   1.518       .  S
C2399      F2403   1.385   1_655  S
C2399      F2404   1.382       .  S
C2399      F2405   1.384       .  S
C2402      F2406   1.383   1_655  S
C2402      F2407   1.382       .  S
C2402      F2408   1.385       .  S
C2409      C2410   1.406       .  A
C2409      C2414   1.411       .  A
C2409      H2416   1.083       .  S
C2410      C2411   1.415       .  A
C2411      C2412   1.415       .  A
C2411      C2418   1.518       .  S
C2412      C2413   1.417       .  A
C2412      H2417   1.082       .  S
C2413      C2414   1.423       .  A
C2414      C2415   1.514       .  S
C2415      F2419   1.385       .  S
C2415      F2420   1.383       .  S
C2415      F2421   1.383       .  S
C2418      F2422   1.384       .  S
C2418      F2423   1.382       .  S
C2418      F2424   1.384       .  S
C2425      C2426   1.414       .  A
C2425      C2430   1.412       .  A
C2425      H2432   1.082       .  S
C2426      C2427   1.421       .  A
C2427      C2428   1.406       .  A
C2427      C2434   1.512       .  S
C2428      C2429   1.404       .  A
C2428      H2433   1.083       .  S
C2429      C2430   1.416       .  A
C2430      C2431   1.519       .  S
C2431      F2435   1.385       .  S
C2431      F2436   1.382       .  S
C2431      F2437   1.384       .  S
C2434      F2438   1.380       .  S
C2434      F2439   1.383       .  S
C2434      F2440   1.384       .  S
C2441      C2442   1.420       .  A
C2441      C2446   1.409       .  A
C2441      H2448   1.081       .  S
C2442      C2443   1.422       .  A
C2443      C2444   1.412       .  A
C2443      C2450   1.519       .  S
C2444      C2445   1.410       .  A
C2444      H2449   1.083       .  S
C2445      C2446   1.415       .  A
C2446      C2447   1.523   1_655  S
C2447      F2451   1.385       .  S
C2447      F2452   1.381   1_455  S
C2447      F2453   1.384       .  S
C2450      F2454   1.382       .  S
C2450      F2455   1.383       .  S
C2450      F2456   1.385   1_556  S
C2457      C2458   1.402       .  A
C2457      C2462   1.399   1_655  A
C2457      H2464   1.082   1_655  S
C2458      C2459   1.410       .  A
C2459      C2460   1.397       .  A
C2459      C2466   1.520       .  S
C2460      C2461   1.403   1_655  A
C2460      H2465   1.080       .  S
C2461      C2462   1.413       .  A
C2462      C2463   1.518       .  S
C2463      F2467   1.385       .  S
C2463      F2468   1.381       .  S
C2463      F2469   1.382       .  S
C2466      F2470   1.383       .  S
C2466      F2471   1.382       .  S
C2466      F2472   1.385       .  S
C2473      C2474   1.406   1_556  A
C2473      C2478   1.410   1_455  A
C2473      H2480   1.082       .  S
C2474      C2475   1.424   1_455  A
C2475      C2476   1.412       .  A
C2475      C2482   1.519       .  S
C2476      C2477   1.407   1_554  A
C2476      H2481   1.082       .  S
C2477      C2478   1.423       .  A
C2478      C2479   1.519   1_655  S
C2479      F2483   1.385       .  S
C2479      F2484   1.381       .  S
C2479      F2485   1.382   1_455  S
C2482      F2486   1.383   1_655  S
C2482      F2487   1.381       .  S
C2482      F2488   1.385       .  S
C2489      C2490   1.404       .  A
C2489      C2494   1.406       .  A
C2489      H2496   1.081       .  S
C2490      C2491   1.417   1_655  A
C2491      C2492   1.410       .  A
C2491      C2498   1.521       .  S
C2492      C2493   1.415       .  A
C2492      H2497   1.081       .  S
C2493      C2494   1.424   1_455  A
C2494      C2495   1.516       .  S
C2495      F2499   1.385       .  S
C2495      F2500   1.381       .  S
C2495      F2501   1.378       .  S
C2498      F2502   1.382       .  S
C2498      F2503   1.384       .  S
C2498      F2504   1.385       .  S
C2505      C2506   1.407       .  A
C2505      C2510   1.408       .  A
C2505      H2512   1.083       .  S
C2506      C2507   1.414       .  A
C2507      C2508   1.409       .  A
C2507      C2514   1.520       .  S
C2508      C2509   1.414       .  A
C2508      H2513   1.082       .  S
C2509      C2510   1.424       .  A
C2510      C2511   1.523       .  S
C2511      F2515   1.385       .  S
C2511      F2516   1.384       .  S
C2511      F2517   1.383       .  S
C2514      F2518   1.384       .  S
C2514      F2519   1.382       .  S
C2514      F2520   1.385       .  S
C2521      C2522   1.404       .  A
C2521      C2526   1.410       .  A
C2521      H2528   1.084       .  S
C2522      C2523   1.422       .  A
C2523      C2524   1.415       .  A
C2523      C2530   1.517   1_455  S
C2524      C2525   1.407       .  A
C2524      H2529   1.083       .  S
C2525      C2526   1.427       .  A
C2526      C2527   1.520       .  S
C2527      F2531   1.386       .  S
C2527      F2532   1.381       .  S
C2527      F2533   1.384       .  S
C2530      F2534   1.382       .  S
C2530      F2535   1.385       .  S
C2530      F2536   1.385       .  S
C2537      C2538   1.406       .  A
C2537      C2542   1.413       .  A
C2537      H2544   1.083       .  S
C2538      C2539   1.421       .  A
C2539      C2540   1.411       .  A
C2539      C2546   1.519       .  S
C2540      C2541   1.404       .  A
C2540      H2545   1.083       .  S
C2541      C2542   1.420       .  A
C2542      C2543   1.519       .  S
C2543      F2547   1.385       .  S
C2543      F2548   1.382       .  S
C2543      F2549   1.383       .  S
C2546      F2550   1.384       .  S
C2546      F2551   1.382       .  S
C2546      F2552   1.385       .  S
C2553      C2554   1.413       .  A
C2553      C2558   1.413       .  A
C2553      H2560   1.082       .  S
C2554      C2555   1.420       .  A
C2555      C2556   1.407       .  A
C2555      C2562   1.524       .  S
C2556      C2557   1.415       .  A
C2556      H2561   1.080       .  S
C2557      C2558   1.423       .  A
C2558      C2559   1.522       .  S
C2559      F2563   1.385       .  S
C2559      F2564   1.383       .  S
C2559      F2565   1.383       .  S
C2562      F2566   1.383       .  S
C2562      F2567   1.384   1_455  S
C2562      F2568   1.385       .  S
C2569      C2570   1.406       .  A
C2569      C2574   1.411       .  A
C2569      H2576   1.083       .  S
C2570      C2571   1.417       .  A
C2571      C2572   1.411       .  A
C2571      C2578   1.512       .  S
C2572      C2573   1.413       .  A
C2572      H2577   1.081       .  S
C2573      C2574   1.426       .  A
C2574      C2575   1.517       .  S
C2575      F2579   1.385       .  S
C2575      F2580   1.381       .  S
C2575      F2581   1.380       .  S
C2578      F2582   1.378   1_554  S
C2578      F2583   1.382   1_554  S
C2578      F2584   1.385       .  S
C2585      C2586   1.404       .  A
C2585      C2590   1.414       .  A
C2585      H2592   1.083       .  S
C2586      C2587   1.424       .  A
C2587      C2588   1.408       .  A
C2587      C2594   1.518       .  S
C2588      C2589   1.404       .  A
C2588      H2593   1.083       .  S
C2589      C2590   1.428       .  A
C2590      C2591   1.521       .  S
C2591      F2595   1.384       .  S
C2591      F2596   1.382       .  S
C2591      F2597   1.385       .  S
C2594      F2598   1.384       .  S
C2594      F2599   1.381       .  S
C2594      F2600   1.385       .  S
C2601      C2602   1.415       .  A
C2601      C2606   1.411       .  A
C2601      H2608   1.082       .  S
C2602      C2603   1.425       .  A
C2603      C2604   1.408       .  A
C2603      C2610   1.516       .  S
C2604      C2605   1.403       .  A
C2604      H2609   1.083       .  S
C2605      C2606   1.414       .  A
C2606      C2607   1.519       .  S
C2607      F2611   1.384       .  S
C2607      F2612   1.382       .  S
C2607      F2613   1.384       .  S
C2610      F2614   1.384       .  S
C2610      F2615   1.383       .  S
C2610      F2616   1.385       .  S
C2617      C2618   1.406       .  A
C2617      C2622   1.402       .  A
C2617      H2624   1.085       .  S
C2618      C2619   1.416       .  A
C2619      C2620   1.398       .  A
C2619      C2626   1.519       .  S
C2620      C2621   1.400       .  A
C2620      H2625   1.085       .  S
C2621      C2622   1.413       .  A
C2622      C2623   1.518       .  S
C2623      F2627   1.384       .  S
C2623      F2628   1.382       .  S
C2623      F2629   1.383       .  S
C2626      F2630   1.383       .  S
C2626      F2631   1.383       .  S
C2626      F2632   1.385       .  S
C2633      C2634   1.410       .  A
C2633      C2638   1.413   1_655  A
C2633      H2640   1.083       .  S
C2634      C2635   1.414       .  A
C2635      C2636   1.406   1_655  A
C2635      C2642   1.522       .  S
C2636      C2637   1.416       .  A
C2636      H2641   1.081       .  S
C2637      C2638   1.422       .  A
C2638      C2639   1.520       .  S
C2639      F2643   1.385       .  S
C2639      F2644   1.380       .  S
C2639      F2645   1.383       .  S
C2642      F2646   1.381       .  S
C2642      F2647   1.384       .  S
C2642      F2648   1.385       .  S
C2649      C2650   1.405       .  A
C2649      C2654   1.411       .  A
C2649      H2656   1.083       .  S
C2650      C2651   1.424       .  A
C2651      C2652   1.413       .  A
C2651      C2658   1.521       .  S
C2652      C2653   1.406       .  A
C2652      H2657   1.083       .  S
C2653      C2654   1.427       .  A
C2654      C2655   1.522       .  S
C2655      F2659   1.385       .  S
C2655      F2660   1.383       .  S
C2655      F2661   1.382       .  S
C2658      F2662   1.383       .  S
C2658      F2663   1.382       .  S
C2658      F2664   1.385       .  S
