geometry optimzed in LAMMPS
_audit_creation_date              2020-12-01 
_audit_creation_method            'lammps2cif' 
_symmetry_space_group_name_H-M    'P1' 
_symmetry_Int_Tables_number       1 
_symmetry_cell_setting            triclinic 
loop_ 
_symmetry_equiv_pos_as_xyz 
  x,y,z 
_cell_length_a                    28.32458891 
_cell_length_b                    28.317329703948793 
_cell_length_c                    41.116064699373744 
_cell_angle_alpha                 89.9968003915971 
_cell_angle_beta                  89.98454744325106 
_cell_angle_gamma                 89.99383453843765 
loop_ 
_atom_site_label 
_atom_site_type_symbol 
_atom_site_fract_x 
_atom_site_fract_y 
_atom_site_fract_z 
_atom_site_charge 
Zr1        Zr  0.48855464  0.04825889  0.87449868     2.17500
O2          O  0.51338140  0.96680012  0.88288948    -0.50900
O3          O  0.40471953  0.03160496  0.88231037    -0.74100
O4          O  0.47717764  0.02720390  0.93185322    -0.80900
O5          O  0.55509843  0.03425988  0.80019838    -0.82600
O6          O  0.47060958  0.09543872  0.96152734    -0.78200
O7          O  0.49008745  0.00292521  0.82201511    -0.89900
O8          O  0.36703801  0.10128805  0.87368426    -0.75800
O9          O  0.44313800  0.11473808  0.89172171    -0.85300
O10         O  0.46868501  0.09089588  0.82596876    -0.85000
O11         O  0.53546794  0.09582419  0.91151662    -0.71800
O12         O  0.56341679  0.07253859  0.85207715    -0.83900
Zr13       Zr  0.54561437  0.22530831  0.85757160     2.26400
Zr14       Zr  0.48850012  0.16368631  0.92732731     2.06300
Zr15       Zr  0.54304044  0.11776919  0.80436754     2.10000
Zr16       Zr  0.42128225  0.15425020  0.84377723     1.78800
O17         O  0.58727905  0.09145234  0.75679432    -0.92700
O18         O  0.36252095  0.20621429  0.86823471    -0.40500
O19         O  0.49504667  0.18272224  0.82048196    -0.77200
O20         O  0.46896250  0.20303904  0.87728881    -0.95800
O21         O  0.56412365  0.18527345  0.90659878    -0.89200
O22         O  0.59191152  0.15950988  0.84174352    -0.92000
C23         C  0.36826827  0.05842806  0.88429684     1.01800
C24         C  0.51969712  0.00700904  0.79817299     1.14700
C25         C  0.47087295  0.05017363  0.95860756     1.05500
O26         O  0.41784398  0.17550071  0.96003620    -0.94100
O27         O  0.47093664  0.24992868  0.92935696    -0.89900
O28         O  0.53035686  0.28173008  0.90005971    -0.83000
C29         C  0.49168381  0.28544948  0.91566141     1.12100
O30         O  0.63442574  0.04283363  0.91267678    -0.96100
Zr31       Zr  0.60936703  0.11830186  0.88989797     1.88900
O32         O  0.62603381  0.24870599  0.87204335    -0.72800
O33         O  0.53705704  0.18318049  0.97428430    -0.52000
O34         O  0.63618739  0.12797115  0.94581247    -0.96700
O35         O  0.67771999  0.08820545  0.86032277    -0.53900
O36         O  0.66557177  0.18276198  0.88808606    -0.73300
C37         C  0.66345846  0.22683782  0.88133234     0.99100
O38         O  0.51827530  0.29912017  0.83334797    -0.62100
O39         O  0.48341913  0.12811419  0.76214931    -0.56900
O40         O  0.58689750  0.24436836  0.80904185    -0.93600
O41         O  0.59291372  0.17736566  0.77873453    -0.92000
O42         O  0.37836690  0.11980162  0.79817050    -0.92400
O43         O  0.38899750  0.21369625  0.80720912    -0.91200
C44         C  0.60186860  0.22094414  0.78474239     1.17900
H45         H  0.45075683  0.07291960  0.81033203     0.33800
H46         H  0.44920262  0.23062405  0.87847573     0.44700
H47         H  0.62211891  0.16803578  0.83271205     0.38200
H48         H  0.54495945  0.07810753  0.93044084     0.34700
H49         H  0.33175662  0.19160570  0.86279566     0.26500
H50         H  0.54321792  0.21746349  0.97224520     0.32400
H51         H  0.67074146  0.13267922  0.94409796     0.38300
H52         H  0.34549587  0.11659273  0.80607618     0.32800
H53         H  0.49918128  0.14733356  0.74519886     0.31700
H54         H  0.56330377  0.08164257  0.74063202     0.33400
H55         H  0.68656303  0.11351830  0.84486816     0.32300
H56         H  0.41055365  0.24102655  0.80948060     0.36300
H57         H  0.50944646  0.29091291  0.81073721     0.29100
H58         H  0.48608450  0.95110973  0.89337509     0.33300
H59         H  0.66860539  0.04630223  0.91712389     0.36100
H60         H  0.47965555  0.09651450  0.75218196     0.28700
H61         H  0.48760896  0.30562356  0.84396847     0.41600
H62         H  0.39245992  0.15949574  0.94767735     0.31700
H63         H  0.36593045  0.20130775  0.89196361     0.39300
H64         H  0.66493317  0.06273319  0.84638803     0.31100
H65         H  0.51533194  0.18051435  0.99307111     0.31200
H66         H  0.53779959  0.96847365  0.90007804     0.31500
Zr67       Zr  0.44142492  0.00089876  0.62925840     2.17500
O68         O  0.52275621  0.97537935  0.62144378    -0.50900
O69         O  0.45756036  0.08506989  0.62141417    -0.74100
O70         O  0.46334076  0.01241469  0.57215160    -0.80900
O71         O  0.45542374  0.93311975  0.70285391    -0.82600
O72         O  0.39541512  0.01821431  0.54210728    -0.78200
O73         O  0.48665679  0.99862670  0.68173437    -0.89900
O74         O  0.38848209  0.12323733  0.63135574    -0.75800
O75         O  0.37501768  0.04649695  0.61210780    -0.85300
O76         O  0.39873021  0.02008845  0.67790003    -0.85000
O77         O  0.39430842  0.95371807  0.59211037    -0.71800
O78         O  0.41703533  0.92577244  0.65114507    -0.83900
Zr79       Zr  0.26443611  0.94442548  0.64561652     2.26400
Zr80       Zr  0.32669457  0.00094594  0.57610167     2.06300
Zr81       Zr  0.37194258  0.94533394  0.69898190     2.10000
Zr82       Zr  0.33560820  0.06793469  0.66033776     1.78800
O83         O  0.39738248  0.89557867  0.74409172    -0.92700
O84         O  0.28369689  0.12848051  0.63798412    -0.40500
O85         O  0.30733805  0.99390090  0.68311820    -0.77200
O86         O  0.28735236  0.02090630  0.62601083    -0.95800
O87         O  0.30461233  0.92546651  0.59671923    -0.89200
O88         O  0.32964791  0.89719182  0.66154289    -0.92000
C89         C  0.43108618  0.12191263  0.62029878     1.01800
C90         C  0.48244448  0.96864086  0.70533540     1.14700
C91         C  0.44065140  0.01825681  0.54525720     1.05500
O92         O  0.31429148  0.07073861  0.54264018    -0.94100
O93         O  0.24050649  0.01886155  0.57381496    -0.89900
O94         O  0.20773378  0.96022451  0.60341359    -0.83000
C95         C  0.20464784  0.99877415  0.58757331     1.12100
O96         O  0.44586826  0.85091641  0.59155544    -0.96100
Zr97       Zr  0.37119635  0.87969438  0.61352094     1.88900
O98         O  0.24038473  0.86419439  0.63143746    -0.72800
O99         O  0.30605603  0.95123044  0.52995618    -0.52000
O100        O  0.36249848  0.85353615  0.55737482    -0.96700
O101        O  0.40261769  0.81305965  0.64430628    -0.53900
O102        O  0.30595381  0.82412029  0.61524348    -0.73300
C103        C  0.26192432  0.82656524  0.62218825     0.99100
O104        O  0.19208783  0.97491964  0.67007744    -0.62100
O105        O  0.36605096  0.00239113  0.74321901    -0.56900
O106        O  0.24375456  0.90323321  0.69380005    -0.93600
O107        O  0.31029907  0.89803353  0.72464679    -0.92000
O108        O  0.36990155  0.10839441  0.70709448    -0.92400
O109        O  0.27444395  0.09748267  0.69667280    -0.91200
C110        C  0.26681524  0.88894484  0.71844949     1.17900
H111        H  0.41677719  0.03768934  0.69366253     0.33800
H112        H  0.25999172  0.04095051  0.62461255     0.44700
H113        H  0.32085553  0.86712403  0.67071296     0.38200
H114        H  0.41227121  0.94422697  0.57329259     0.34700
H115        H  0.29848099  0.15878417  0.64437465     0.26500
H116        H  0.28849848  0.97244126  0.51512539     0.32400
H117        H  0.35600124  0.81924094  0.55883469     0.38300
H118        H  0.39093704  0.13272629  0.69766026     0.32800
H119        H  0.34621365  0.98664093  0.75982731     0.31700
H120        H  0.40997115  0.91748367  0.76073404     0.33400
H121        H  0.37467658  0.79600178  0.65272533     0.32300
H122        H  0.24830784  0.07446021  0.69455571     0.36300
H123        H  0.20100863  0.98388942  0.69253336     0.29100
H124        H  0.53917082  0.00321603  0.61224526     0.33300
H125        H  0.44025798  0.81747076  0.58566412     0.36100
H126        H  0.39796878  0.00357448  0.75299097     0.28700
H127        H  0.18648661  0.00559714  0.65921549     0.41600
H128        H  0.32887031  0.09675050  0.55521878     0.31700
H129        H  0.28852976  0.12662275  0.61416799     0.39300
H130        H  0.41701574  0.82755518  0.66384552     0.31100
H131        H  0.33641726  0.94533167  0.51872250     0.31200
H132        H  0.52144336  0.95230846  0.60336914     0.31500
Zr133      Zr  0.01071142  0.00168315  0.87560225     2.17500
O134        O  0.93005472  0.97428880  0.88364760    -0.50900
O135        O  0.99378279  0.08537546  0.88328974    -0.74100
O136        O  0.98942906  0.01351405  0.93271616    -0.80900
O137        O  0.99616602  0.93573372  0.80237500    -0.82600
O138        O  0.05742424  0.01844677  0.96281913    -0.78200
O139        O  0.96543343  0.00146903  0.82327149    -0.89900
O140        O  0.06357789  0.12288466  0.87456490    -0.75800
O141        O  0.07736067  0.04670343  0.89304423    -0.85300
O142        O  0.05360968  0.02149278  0.82717665    -0.85000
O143        O  0.05786726  0.95437033  0.91254427    -0.71800
O144        O  0.03441941  0.92680949  0.85306939    -0.83900
Zr145      Zr  0.18733425  0.94387114  0.85900091     2.26400
Zr146      Zr  0.12589197  0.00095206  0.92869622     2.06300
Zr147      Zr  0.07984496  0.94702085  0.80551593     2.10000
Zr148      Zr  0.11702703  0.06846858  0.84508441     1.78800
O149        O  0.05337031  0.90006942  0.75929352    -0.92700
O150        O  0.16905500  0.12814365  0.86834983    -0.40500
O151        O  0.14496191  0.99450434  0.82186974    -0.77200
O152        O  0.16543951  0.02064480  0.87884767    -0.95800
O153        O  0.14687394  0.92520390  0.90779810    -0.89200
O154        O  0.12144824  0.89795011  0.84278105    -0.92000
C155        C  0.02065738  0.12179532  0.88510616     1.01800
C156        C  0.96968168  0.97160226  0.79964672     1.14700
C157        C  0.01219403  0.01895106  0.95960772     1.05500
O158        O  0.13884815  0.07310794  0.95959398    -0.94100
O159        O  0.21231601  0.01742918  0.93101169    -0.89900
O160        O  0.24423951  0.95857716  0.90121285    -0.83000
C161        C  0.24784835  0.99698138  0.91713539     1.12100
O162        O  0.00436043  0.85367174  0.91271096    -0.96100
Zr163      Zr  0.07977217  0.88039492  0.89074107     1.88900
O164        O  0.21026922  0.86353412  0.87371339    -0.72800
O165        O  0.14611579  0.95419782  0.97640150    -0.52000
O166        O  0.08804724  0.85545167  0.94714880    -0.96700
O167        O  0.04950508  0.81248685  0.86074182    -0.53900
O168        O  0.14397554  0.82395483  0.88901567    -0.73300
C169        C  0.18816761  0.82609349  0.88265869     0.99100
O170        O  0.26126025  0.97217034  0.83553299    -0.62100
O171        O  0.08742967  0.00606996  0.76264671    -0.56900
O172        O  0.20662344  0.90176773  0.81079243    -0.93600
O173        O  0.14039617  0.89890143  0.77947322    -0.92000
O174        O  0.08312740  0.11243035  0.79972362    -0.92400
O175        O  0.17688623  0.09637305  0.80716014    -0.91200
C176        C  0.18354557  0.88858767  0.78584844     1.17900
H177        H  0.03586422  0.03964678  0.81154344     0.33800
H178        H  0.19300268  0.04040956  0.88028060     0.44700
H179        H  0.12988775  0.86784391  0.83353598     0.38200
H180        H  0.03991696  0.94488872  0.93136689     0.34700
H181        H  0.15676436  0.15853584  0.85995342     0.26500
H182        H  0.17864805  0.94290141  0.97225786     0.32400
H183        H  0.09401387  0.82103494  0.94607518     0.38300
H184        H  0.05663540  0.13063649  0.80919902     0.32800
H185        H  0.10647534  0.99038244  0.74557868     0.31700
H186        H  0.03959055  0.92295175  0.74375696     0.33400
H187        H  0.07472860  0.80399083  0.84512972     0.32300
H188        H  0.20409843  0.07499470  0.81062951     0.36300
H189        H  0.25420904  0.97819184  0.81231465     0.29100
H190        H  0.91290747  0.00197503  0.89241595     0.33300
H191        H  0.00945371  0.82041725  0.91929203     0.36100
H192        H  0.05546627  0.00883892  0.75310308     0.28700
H193        H  0.26556738  0.00416799  0.84475339     0.41600
H194        H  0.12269990  0.09794928  0.94680203     0.31700
H195        H  0.16112914  0.12853336  0.89180062     0.39300
H196        H  0.02397645  0.82558465  0.84699011     0.31100
H197        H  0.14961995  0.97769316  0.99407748     0.31200
H198        H  0.93190029  0.95182935  0.90206445     0.31500
Zr199      Zr  0.96355474  0.04944367  0.62985106     2.17500
O200        O  0.93766042  0.96824377  0.62175976    -0.50900
O201        O  0.04754024  0.03382712  0.62143636    -0.74100
O202        O  0.97456100  0.02803095  0.57245817    -0.80900
O203        O  0.89759704  0.03532556  0.70382816    -0.82600
O204        O  0.97902583  0.09614203  0.54244060    -0.78200
O205        O  0.96315438  0.00456775  0.68253060    -0.89900
O206        O  0.08507037  0.10342134  0.63096314    -0.75800
O207        O  0.00833201  0.11627131  0.61253478    -0.85300
O208        O  0.98319114  0.09257094  0.67829869    -0.85000
O209        O  0.91575129  0.09655537  0.59309891    -0.71800
O210        O  0.88872508  0.07320003  0.65254491    -0.83900
Zr211      Zr  0.90487883  0.22600890  0.64635590     2.26400
Zr212      Zr  0.96231684  0.16448877  0.57687600     2.06300
Zr213      Zr  0.90872747  0.11890719  0.70003373     2.10000
Zr214      Zr  0.02993925  0.15623402  0.66042298     1.78800
O215        O  0.86184437  0.09235256  0.74627672    -0.92700
O216        O  0.08881680  0.20929185  0.63727302    -0.40500
O217        O  0.95589362  0.18412726  0.68352260    -0.77200
O218        O  0.98181441  0.20436657  0.62665128    -0.95800
O219        O  0.88644446  0.18517318  0.59765200    -0.89200
O220        O  0.85920058  0.16006489  0.66280847    -0.92000
C221        C  0.08402944  0.06071030  0.61997815     1.01800
C222        C  0.93343014  0.00875336  0.70629140     1.09900
C223        C  0.97957443  0.05088473  0.54550901     1.05500
O224        O  0.03448481  0.17631886  0.54579888    -0.94100
O225        O  0.97843365  0.25096615  0.57449554    -0.89900
O226        O  0.91867685  0.28231603  0.60363026    -0.83000
C227        C  0.95735404  0.28634827  0.58809612     1.12100
O228        O  0.81758103  0.04221969  0.59245054    -0.96100
Zr229      Zr  0.84166730  0.11815605  0.61500855     1.88900
O230        O  0.82423512  0.24868246  0.63217334    -0.72800
O231        O  0.91560248  0.18545772  0.52937439    -0.52000
O232        O  0.81176392  0.12609171  0.55972619    -0.96700
O233        O  0.77605350  0.08597170  0.64643441    -0.53900
O234        O  0.78474057  0.18228825  0.61698973    -0.73300
C235        C  0.78674253  0.22652824  0.62341207     0.99100
O236        O  0.93269627  0.30000317  0.66997722    -0.62100
O237        O  0.96719821  0.12746371  0.74319317    -0.56900
O238        O  0.86290954  0.24549740  0.69447354    -0.93600
O239        O  0.86000237  0.17927491  0.72580923    -0.92000
O240        O  0.07371968  0.12231490  0.70582633    -0.92400
O241        O  0.05783910  0.21551518  0.69878255    -0.91200
C242        C  0.84946847  0.22234895  0.71930826     1.17900
H243        H  0.00138801  0.07498695  0.69400280     0.33800
H244        H  0.00141472  0.23204420  0.62518426     0.44700
H245        H  0.82903379  0.16830203  0.67204130     0.38200
H246        H  0.90619620  0.07867938  0.57427025     0.34700
H247        H  0.11935803  0.19748903  0.64572103     0.26500
H248        H  0.93883550  0.18755291  0.51144181     0.32400
H249        H  0.77701117  0.12782492  0.56208993     0.38300
H250        H  0.10651160  0.11928518  0.69773579     0.32800
H251        H  0.95125664  0.14661694  0.76009859     0.31700
H252        H  0.88488667  0.08287622  0.76316153     0.33400
H253        H  0.76420386  0.11261132  0.65971590     0.32300
H254        H  0.03608763  0.24256076  0.69583036     0.36300
H255        H  0.94014734  0.29246151  0.69292844     0.29100
H256        H  0.96602338  0.95140837  0.61376778     0.33300
H257        H  0.78323279  0.04495615  0.58839261     0.36100
H258        H  0.97018561  0.09562817  0.75292979     0.28700
H259        H  0.96403815  0.30534688  0.65999796     0.41600
H260        H  0.06003798  0.16600474  0.56061512     0.31700
H261        H  0.08946507  0.20143314  0.61381889     0.39300
H262        H  0.79104357  0.06446383  0.66236881     0.31100
H263        H  0.89707685  0.15666477  0.52449493     0.31200
H264        H  0.91608868  0.96942220  0.60282543     0.31500
Zr265      Zr  0.44090797  0.52800419  0.87526316     2.17500
O266        O  0.52154548  0.55548093  0.88343714    -0.50900
O267        O  0.45776505  0.44408630  0.88285749    -0.74100
O268        O  0.46226303  0.51687860  0.93251808    -0.80900
O269        O  0.45488321  0.59416108  0.80148050    -0.82600
O270        O  0.39412455  0.51095140  0.96237099    -0.78200
O271        O  0.48611252  0.52883730  0.82281872    -0.89900
O272        O  0.38845334  0.40615012  0.87331091    -0.75800
O273        O  0.37443232  0.48268262  0.89272818    -0.85300
O274        O  0.39793753  0.50826047  0.82684140    -0.85000
O275        O  0.39340448  0.57526665  0.91207764    -0.71800
O276        O  0.41670829  0.60275779  0.85274275    -0.83900
Zr277      Zr  0.26368070  0.58484821  0.85877693     2.26400
Zr278      Zr  0.32566102  0.52838670  0.92835248     2.06300
Zr279      Zr  0.37124012  0.58260182  0.80519469     2.10000
Zr280      Zr  0.33471992  0.46090010  0.84476098     1.78800
O281        O  0.39739620  0.63010465  0.75911582    -0.92700
O282        O  0.28381361  0.40126837  0.86925983    -0.40500
O283        O  0.30625983  0.53459434  0.82143485    -0.77200
O284        O  0.28612865  0.50833599  0.87857944    -0.95800
O285        O  0.30419354  0.60397800  0.90748663    -0.89200
O286        O  0.32918121  0.63136054  0.84248772    -0.92000
C287        C  0.43119101  0.40735081  0.88406654     1.01800
C288        C  0.48179216  0.55853160  0.79907232     1.14700
C289        C  0.43935678  0.51105726  0.95934052     1.05500
O290        O  0.31393346  0.45769387  0.96101641    -0.94100
O291        O  0.23931631  0.51084631  0.93070456    -0.89900
O292        O  0.20733261  0.57008984  0.90140540    -0.83000
C293        C  0.20368245  0.53141203  0.91700370     1.12100
O294        O  0.44610571  0.67773227  0.91155282    -0.96100
Zr295      Zr  0.37102006  0.64913103  0.89024968     1.88900
O296        O  0.24002175  0.66497761  0.87330223    -0.72800
O297        O  0.30570503  0.57648854  0.97545029    -0.52000
O298        O  0.36575873  0.67574415  0.94646824    -0.96700
O299        O  0.40059582  0.71525971  0.85807356    -0.53900
O300        O  0.30579368  0.70460144  0.88956064    -0.73300
C301        C  0.26173346  0.70234986  0.88277621     0.99100
O302        O  0.18951211  0.55623016  0.83585447    -0.62100
O303        O  0.36399930  0.52440460  0.76175041    -0.56900
O304        O  0.24423124  0.62629598  0.81042074    -0.93600
O305        O  0.31066716  0.63100397  0.77939865    -0.92000
O306        O  0.36866035  0.41871020  0.79865677    -0.92400
O307        O  0.27412967  0.42915068  0.80891117    -0.91200
C308        C  0.26728984  0.64042780  0.78572338     1.17900
H309        H  0.41576987  0.49029574  0.81114510     0.33800
H310        H  0.25867815  0.48841283  0.87998103     0.44700
H311        H  0.32058285  0.66152220  0.83338326     0.38200
H312        H  0.41125112  0.58490540  0.93090278     0.34700
H313        H  0.29718168  0.37069422  0.86204494     0.26500
H314        H  0.30520452  0.55389971  0.99382233     0.32400
H315        H  0.35802343  0.70978130  0.94509726     0.38300
H316        H  0.37172714  0.38564005  0.80619790     0.32800
H317        H  0.34503334  0.54030162  0.74473400     0.31700
H318        H  0.40830248  0.60728632  0.74248766     0.33400
H319        H  0.37226754  0.73050584  0.84866739     0.32300
H320        H  0.24634110  0.44967753  0.81263416     0.36300
H321        H  0.19622535  0.55024674  0.81258344     0.29100
H322        H  0.53787188  0.52904728  0.89448121     0.33300
H323        H  0.44151582  0.71187734  0.91570417     0.36100
H324        H  0.39602680  0.52173476  0.75227571     0.28700
H325        H  0.18545774  0.52420919  0.84509234     0.41600
H326        H  0.32711643  0.43177339  0.94763863     0.31700
H327        H  0.29099508  0.40270141  0.89280350     0.39300
H328        H  0.41646754  0.70033800  0.83923512     0.31100
H329        H  0.33422311  0.59591501  0.97929941     0.31200
H330        H  0.51893989  0.58046826  0.90019272     0.31500
Zr331      Zr  0.48843928  0.48019103  0.62982810     2.17500
O332        O  0.51500189  0.56125376  0.62209092    -0.50900
O333        O  0.40432487  0.49684911  0.62238388    -0.74100
O334        O  0.47701444  0.50187794  0.57264955    -0.80900
O335        O  0.55497605  0.49354434  0.70399877    -0.82600
O336        O  0.47141963  0.43373247  0.54279229    -0.78200
O337        O  0.49005791  0.52530095  0.68232258    -0.89900
O338        O  0.36647374  0.42730369  0.63127413    -0.75800
O339        O  0.44315032  0.41375092  0.61232559    -0.85300
O340        O  0.46870195  0.43732229  0.67827080    -0.85000
O341        O  0.53588609  0.43294462  0.59290147    -0.71800
O342        O  0.56296343  0.45546884  0.65243840    -0.83900
Zr343      Zr  0.54494130  0.30279503  0.64643626     2.26400
Zr344      Zr  0.48912636  0.36518048  0.57669464     2.06300
Zr345      Zr  0.54275294  0.41003618  0.70005594     2.10000
Zr346      Zr  0.42123638  0.37424413  0.66042059     1.78800
O347        O  0.58936537  0.43514173  0.74681025    -0.92700
O348        O  0.36142437  0.32210082  0.63750282    -0.40500
O349        O  0.49467296  0.34530651  0.68378368    -0.77200
O350        O  0.46857648  0.32564137  0.62644090    -0.95800
O351        O  0.56432466  0.34324592  0.59773292    -0.89200
O352        O  0.59153442  0.36824325  0.66270197    -0.92000
C353        C  0.36765821  0.47019415  0.62076846     1.01800
C354        C  0.51956188  0.52079528  0.70617381     1.14700
C355        C  0.47119294  0.47896677  0.54583314     1.05500
O356        O  0.42014141  0.35193950  0.54265548    -0.94100
O357        O  0.47179098  0.27884569  0.57431107    -0.89900
O358        O  0.53102632  0.24684076  0.60355298    -0.83000
C359        C  0.49233624  0.24321596  0.58801922     1.12100
O360        O  0.63623290  0.48481526  0.59195317    -0.96100
Zr361      Zr  0.60952323  0.41002045  0.61490267     1.88900
O362        O  0.62541737  0.27925580  0.63249364    -0.72800
O363        O  0.53924061  0.34644608  0.53035385    -0.52000
O364        O  0.63882659  0.40116778  0.55949742    -0.96700
O365        O  0.67422449  0.44313340  0.64669216    -0.53900
O366        O  0.66562027  0.34519255  0.61716076    -0.73300
C367        C  0.66312933  0.30098997  0.62364467     0.99100
O368        O  0.51519672  0.22927265  0.66972273    -0.62100
O369        O  0.48326150  0.40346803  0.74273828    -0.56900
O370        O  0.58679133  0.28239316  0.69431255    -0.93600
O371        O  0.59107391  0.34869506  0.72550438    -0.92000
O372        O  0.37822368  0.40993265  0.70554835    -0.92400
O373        O  0.39128811  0.31560736  0.69850179    -0.91200
C374        C  0.60095482  0.30541761  0.71899003     1.17900
H375        H  0.45078822  0.45531290  0.69390536     0.33800
H376        H  0.44857407  0.29827044  0.62487460     0.44700
H377        H  0.62165937  0.35975676  0.67188375     0.38200
H378        H  0.54547840  0.45087076  0.57408333     0.34700
H379        H  0.33096334  0.33509041  0.64525210     0.26500
H380        H  0.51689188  0.33752781  0.51289789     0.32400
H381        H  0.67321676  0.39582615  0.56179100     0.38300
H382        H  0.34520310  0.41223674  0.69780432     0.32800
H383        H  0.49817105  0.38376863  0.75977883     0.31700
H384        H  0.56631354  0.44313636  0.76405596     0.33400
H385        H  0.68774353  0.41613340  0.65880950     0.32300
H386        H  0.41115004  0.28734246  0.69476084     0.36300
H387        H  0.50881011  0.23654976  0.69286669     0.29100
H388        H  0.48813058  0.57761011  0.61158451     0.33300
H389        H  0.67041224  0.48080221  0.58769690     0.36100
H390        H  0.48105409  0.43537492  0.75247712     0.28700
H391        H  0.48334070  0.22541226  0.66020551     0.41600
H392        H  0.39363155  0.36599003  0.55502751     0.31700
H393        H  0.36174520  0.32895078  0.61388883     0.39300
H394        H  0.65871726  0.46265192  0.66358862     0.31100
H395        H  0.55215077  0.37731339  0.52333922     0.31200
H396        H  0.53954703  0.55928840  0.60499108     0.31500
Zr397      Zr  0.96185967  0.47940137  0.87515459     2.17500
O398        O  0.93500286  0.56031126  0.88319667    -0.50900
O399        O  0.04575938  0.49675551  0.88268621    -0.74100
O400        O  0.97296287  0.50089497  0.93233705    -0.80900
O401        O  0.89499054  0.49239636  0.80124386    -0.82600
O402        O  0.97970926  0.43285070  0.96220933    -0.78200
O403        O  0.96000437  0.52426829  0.82258884    -0.89900
O404        O  0.08351173  0.42694236  0.87467035    -0.75800
O405        O  0.00730170  0.41314945  0.89284952    -0.85300
O406        O  0.98203026  0.43636121  0.82686264    -0.85000
O407        O  0.91479911  0.43199704  0.91212477    -0.71800
O408        O  0.88720816  0.45461358  0.85275940    -0.83900
Zr409      Zr  0.90569570  0.30153337  0.85868520     2.26400
Zr410      Zr  0.96164296  0.36435017  0.92841635     2.06300
Zr411      Zr  0.90781132  0.40905220  0.80532972     2.10000
Zr412      Zr  0.02952754  0.37332240  0.84503932     1.78800
O413        O  0.86042772  0.43265210  0.75858357    -0.92700
O414        O  0.09028870  0.32268173  0.86845487    -0.40500
O415        O  0.95608534  0.34436772  0.82161442    -0.77200
O416        O  0.98201742  0.32456212  0.87873952    -0.95800
O417        O  0.88645935  0.34195916  0.90742899    -0.89200
O418        O  0.85914485  0.36707953  0.84263727    -0.92000
C419        C  0.08231036  0.47002821  0.88485195     1.01800
C420        C  0.93029267  0.51971019  0.79888164     1.14700
C421        C  0.97925587  0.47807430  0.95912665     1.05500
O422        O  0.03169143  0.35092794  0.96140383    -0.94100
O423        O  0.97904038  0.27813829  0.93112141    -0.89900
O424        O  0.92039619  0.24560282  0.90150559    -0.83000
C425        C  0.95885373  0.24236391  0.91737264     1.12100
O426        O  0.81308941  0.48339673  0.91290648    -0.96100
Zr427      Zr  0.84119550  0.40879539  0.89047217     1.88900
O428        O  0.82531534  0.27806064  0.87311068    -0.72800
O429        O  0.91204120  0.34752074  0.97536490    -0.52000
O430        O  0.81649153  0.39966082  0.94688779    -0.96700
O431        O  0.77362017  0.44017130  0.86071080    -0.53900
O432        O  0.78523833  0.34413453  0.88831975    -0.73300
C433        C  0.78764479  0.29995995  0.88189314     0.99100
O434        O  0.93401140  0.22749557  0.83526162    -0.62100
O435        O  0.96666874  0.40194979  0.76229912    -0.56900
O436        O  0.86428677  0.28209056  0.81023560    -0.93600
O437        O  0.85901882  0.34885032  0.77962116    -0.92000
O438        O  0.07174404  0.40703477  0.79885148    -0.92400
O439        O  0.06001791  0.31207389  0.80917245    -0.91200
C440        C  0.84965411  0.30544139  0.78579985     1.17900
H441        H  0.99991038  0.45433239  0.81119819     0.33800
H442        H  0.00208819  0.29722917  0.88033969     0.44700
H443        H  0.82899568  0.35859517  0.83349465     0.38200
H444        H  0.90514148  0.44985305  0.93095108     0.34700
H445        H  0.12052528  0.33822972  0.86281175     0.26500
H446        H  0.90620172  0.31309634  0.97429963     0.32400
H447        H  0.78264309  0.39107878  0.94579783     0.38300
H448        H  0.09980939  0.42256830  0.80841658     0.32800
H449        H  0.95115195  0.38287404  0.74517629     0.31700
H450        H  0.88318833  0.44418041  0.74212451     0.33400
H451        H  0.76331444  0.41424218  0.84621493     0.32300
H452        H  0.04197725  0.28335425  0.81506026     0.36300
H453        H  0.94120509  0.23491095  0.81224955     0.29100
H454        H  0.96224575  0.57691285  0.89304109     0.33300
H455        H  0.78000245  0.47763528  0.91961420     0.36100
H456        H  0.96935076  0.43397865  0.75282128     0.28700
H457        H  0.96549532  0.22261748  0.84513342     0.41600
H458        H  0.05693279  0.36909429  0.95038489     0.31700
H459        H  0.08720558  0.32714214  0.89224229     0.39300
H460        H  0.78725463  0.46401701  0.84580636     0.31100
H461        H  0.93320667  0.35159248  0.99432833     0.31200
H462        H  0.91128906  0.55832442  0.90084549     0.31500
Zr463      Zr  0.00942523  0.52795005  0.62964583     2.17500
O464        O  0.92942824  0.55708271  0.62136533    -0.50900
O465        O  0.99181556  0.44440880  0.62179830    -0.74100
O466        O  0.98810213  0.51560731  0.57243882    -0.80900
O467        O  0.99587398  0.59320591  0.70441965    -0.82600
O468        O  0.05617954  0.51073542  0.54241196    -0.78200
O469        O  0.96433231  0.52854300  0.68218782    -0.89900
O470        O  0.06125521  0.40630910  0.63069216    -0.75800
O471        O  0.07572268  0.48245982  0.61211859    -0.85300
O472        O  0.05218459  0.50740411  0.67797572    -0.85000
O473        O  0.05694488  0.57480475  0.59269025    -0.71800
O474        O  0.03395815  0.60233459  0.65246819    -0.83900
Zr475      Zr  0.18650170  0.58468513  0.64616182     2.26400
Zr476      Zr  0.12466501  0.52781090  0.57650853     2.06300
Zr477      Zr  0.07936403  0.58130238  0.69990626     2.10000
Zr478      Zr  0.11538160  0.46021921  0.65994248     1.78800
O479        O  0.05458138  0.62608451  0.74760762    -0.92700
O480        O  0.16662806  0.40052883  0.63584447    -0.40500
O481        O  0.14427666  0.53374411  0.68326699    -0.77200
O482        O  0.16408179  0.50805186  0.62640640    -0.95800
O483        O  0.14608890  0.60351456  0.59735957    -0.89200
O484        O  0.12073281  0.63066118  0.66257584    -0.92000
C485        C  0.01836770  0.40771549  0.62012991     1.01800
C486        C  0.96858614  0.55778368  0.70622842     1.14700
C487        C  0.01095931  0.51009062  0.54554584     1.05500
O488        O  0.13640426  0.45543344  0.54561956    -0.94100
O489        O  0.21094141  0.51035918  0.57426413    -0.89900
O490        O  0.24237975  0.57017788  0.60319754    -0.83000
C491        C  0.24633637  0.53118703  0.58802026     1.12100
O492        O  0.00358283  0.67441147  0.59246886    -0.96100
Zr493      Zr  0.07920167  0.64859434  0.61459406     1.88900
O494        O  0.20942313  0.66541466  0.63204792    -0.72800
O495        O  0.14449521  0.57407823  0.52851727    -0.52000
O496        O  0.08727779  0.67456977  0.55836846    -0.96700
O497        O  0.04782758  0.71584808  0.64472449    -0.53900
O498        O  0.14342275  0.70517926  0.61638736    -0.73300
C499        C  0.18755514  0.70296561  0.62298595     0.99100
O500        O  0.26073306  0.55637575  0.66917983    -0.62100
O501        O  0.08785985  0.52125024  0.74205918    -0.56900
O502        O  0.20604924  0.62600577  0.69455161    -0.93600
O503        O  0.13980264  0.62970226  0.72580950    -0.92000
O504        O  0.08138303  0.41785969  0.70597103    -0.92400
O505        O  0.17499093  0.42912473  0.69684082    -0.91200
C506        C  0.18301933  0.63967224  0.71938123     1.17900
H507        H  0.03425224  0.48931563  0.69354986     0.33800
H508        H  0.19155958  0.48815383  0.62506592     0.44700
H509        H  0.12920499  0.66073588  0.67184662     0.38200
H510        H  0.03897989  0.58428360  0.57387586     0.34700
H511        H  0.15200443  0.36998177  0.64185298     0.26500
H512        H  0.14872671  0.55036242  0.51106864     0.32400
H513        H  0.09209271  0.70914294  0.55973488     0.38300
H514        H  0.07142077  0.38700386  0.69696589     0.32800
H515        H  0.10744593  0.53643916  0.75904634     0.31700
H516        H  0.04053422  0.60273127  0.76270006     0.33400
H517        H  0.07432135  0.72721885  0.65832625     0.32300
H518        H  0.20322885  0.44891306  0.69283824     0.36300
H519        H  0.25399823  0.55033572  0.69244311     0.29100
H520        H  0.91155435  0.52955114  0.61308517     0.33300
H521        H  0.00836012  0.70768162  0.58582071     0.36100
H522        H  0.05614357  0.51838059  0.75199327     0.28700
H523        H  0.26488647  0.52437120  0.65994703     0.41600
H524        H  0.11692073  0.43157916  0.55703257     0.31700
H525        H  0.16126694  0.40328843  0.61212572     0.39300
H526        H  0.02538796  0.70179770  0.66045727     0.31100
H527        H  0.11480759  0.59057024  0.52278256     0.31200
H528        H  0.93171608  0.57887318  0.60259081     0.31500
Zr529      Zr  0.45964038  0.55151281  0.37669329     2.17500
O530        O  0.43847336  0.46901864  0.38488371    -0.50900
O531        O  0.54417836  0.53539769  0.37858069    -0.74100
O532        O  0.46246972  0.51358786  0.32169252    -0.80900
O533        O  0.46977754  0.59864421  0.46377888    -0.82600
O534        O  0.39315516  0.53415684  0.29941080    -0.78200
O535        O  0.46446513  0.53027808  0.43424431    -0.89900
O536        O  0.58092471  0.60064119  0.35834910    -0.75800
O537        O  0.46875241  0.59338403  0.32717336    -0.85300
O538        O  0.50574932  0.61921426  0.39185188    -0.85000
O539        O  0.38067829  0.57214747  0.35992058    -0.71800
O540        O  0.41724142  0.59947609  0.41504840    -0.83900
Zr541      Zr  0.39746291  0.72636351  0.36078285     2.26400
Zr542      Zr  0.39074150  0.61678762  0.31059333     2.06300
Zr543      Zr  0.46307965  0.66783422  0.42858001     2.10000
Zr544      Zr  0.51920376  0.65653912  0.34073586     1.78800
O545        O  0.42657781  0.70189228  0.47685658    -0.92700
O546        O  0.54717535  0.62189160  0.28996793    -0.40500
O547        O  0.47537105  0.70460196  0.37745856    -0.77200
O548        O  0.44195303  0.68192300  0.32150063    -0.95800
O549        O  0.34825157  0.66089418  0.34967731    -0.89200
O550        O  0.38547357  0.68776884  0.41155732    -0.92000
C551        C  0.58127293  0.55983798  0.37227383     1.01800
C552        C  0.46807371  0.55339485  0.46114667     1.14700
C553        C  0.43224547  0.51260569  0.29807604     1.05500
O554        O  0.42671372  0.61615589  0.25677587    -0.94100
O555        O  0.35063021  0.68023714  0.28170105    -0.89900
O556        O  0.34974443  0.74483167  0.31454640    -0.83000
C557        C  0.33947328  0.72308579  0.28837260     1.12100
O558        O  0.31296626  0.54498020  0.42303703    -0.96100
Zr559      Zr  0.33947694  0.61931173  0.39926554     1.88900
O560        O  0.32135989  0.74981090  0.38145496    -0.72800
O561        O  0.31442767  0.59124035  0.28957950    -0.52000
O562        O  0.26981615  0.58932341  0.37132090    -0.96700
O563        O  0.32206548  0.62430072  0.45725000    -0.53900
O564        O  0.28467997  0.68425812  0.40136150    -0.73300
C565        C  0.28621032  0.72810303  0.39405693     0.99100
O566        O  0.42306913  0.79914908  0.33405491    -0.62100
O567        O  0.53627424  0.67692444  0.45914307    -0.56900
O568        O  0.42171534  0.78348910  0.40037132    -0.93600
O569        O  0.48856742  0.75032781  0.41845056    -0.92000
O570        O  0.58150834  0.70805259  0.36090335    -0.92400
O571        O  0.54428520  0.71954392  0.30427857    -0.91200
C572        C  0.46489078  0.78639959  0.40842012     1.17900
H573        H  0.53333934  0.61259682  0.40473402     0.33800
H574        H  0.44571944  0.70043264  0.30195389     0.44700
H575        H  0.37028630  0.70808116  0.42726926     0.38200
H576        H  0.36255871  0.54375723  0.35604566     0.34700
H577        H  0.58046444  0.63222292  0.28812097     0.26500
H578        H  0.32145659  0.57523354  0.26872533     0.32400
H579        H  0.24271011  0.60098872  0.38423278     0.38300
H580        H  0.61120791  0.69365328  0.35294780     0.32800
H581        H  0.52611259  0.68154412  0.48196673     0.31700
H582        H  0.41416796  0.67446182  0.48908714     0.33400
H583        H  0.31718793  0.65831282  0.46166850     0.32300
H584        H  0.52484337  0.74714971  0.31054613     0.36300
H585        H  0.45748260  0.80046942  0.33804807     0.29100
H586        H  0.46493521  0.45097690  0.37522570     0.33300
H587        H  0.28040579  0.55086827  0.43083422     0.36100
H588        H  0.55140653  0.64541161  0.45896395     0.28700
H589        H  0.42103015  0.79328495  0.31036403     0.41600
H590        H  0.40595085  0.59555022  0.24359630     0.31700
H591        H  0.54925838  0.58751913  0.29418033     0.39300
H592        H  0.35234603  0.61665286  0.46806708     0.31100
H593        H  0.30404862  0.56566558  0.30437123     0.31200
H594        H  0.41158793  0.46353585  0.36996178     0.31500
Zr595      Zr  0.51267925  0.49863260  0.12817592     2.17500
O596        O  0.43017167  0.47783619  0.11976180    -0.50900
O597        O  0.49669063  0.58311495  0.12541304    -0.74100
O598        O  0.47482247  0.50232030  0.18325737    -0.80900
O599        O  0.55939924  0.51055408  0.04109939    -0.82600
O600        O  0.49603379  0.43381878  0.20661791    -0.78200
O601        O  0.49131479  0.50312318  0.07070854    -0.89900
O602        O  0.56213177  0.62006455  0.14509176    -0.75800
O603        O  0.55499191  0.50891205  0.17735349    -0.85300
O604        O  0.58038286  0.54410073  0.11220695    -0.85000
O605        O  0.53297564  0.41999639  0.14588013    -0.71800
O606        O  0.56014103  0.45532926  0.08997588    -0.83900
Zr607      Zr  0.68729861  0.43590133  0.14367186     2.26400
Zr608      Zr  0.57838252  0.43130027  0.19472927     2.06300
Zr609      Zr  0.62869445  0.50050743  0.07575197     2.10000
Zr610      Zr  0.61833831  0.55864175  0.16288878     1.78800
O611        O  0.66005392  0.46017710  0.02804560    -0.92700
O612        O  0.58541689  0.58902174  0.21354859    -0.40500
O613        O  0.66600453  0.51371903  0.12652560    -0.77200
O614        O  0.64368394  0.48167932  0.18274437    -0.95800
O615        O  0.62159868  0.38759518  0.15586131    -0.89200
O616        O  0.64800424  0.42296738  0.09333070    -0.92000
C617        C  0.52116879  0.62028377  0.13139804     1.01800
C618        C  0.51422160  0.50807868  0.04383805     1.14700
C619        C  0.47390615  0.47263690  0.20723632     1.05500
O620        O  0.57887175  0.47075399  0.24736532    -0.94100
O621        O  0.64218755  0.39118600  0.22327107    -0.89900
O622        O  0.70576604  0.38784340  0.18957133    -0.83000
C623        C  0.68450930  0.37872193  0.21610791     1.12100
O624        O  0.50382819  0.35402709  0.08342395    -0.96100
Zr625      Zr  0.57939401  0.37772697  0.10669803     1.88900
O626        O  0.71012829  0.35941435  0.12319187    -0.72800
O627        O  0.55325974  0.35625096  0.21810359    -0.52000
O628        O  0.54989797  0.30890469  0.13592639    -0.96700
O629        O  0.58327499  0.35675534  0.04926112    -0.53900
O630        O  0.64378209  0.32210867  0.10522899    -0.73300
C631        C  0.68790873  0.32379163  0.11168368     0.99100
O632        O  0.76008129  0.45971106  0.17110638    -0.62100
O633        O  0.64053048  0.57181570  0.04355830    -0.56900
O634        O  0.74487074  0.46009770  0.10432869    -0.93600
O635        O  0.71127379  0.52636073  0.08548938    -0.92000
O636        O  0.67024974  0.61907623  0.14059290    -0.92400
O637        O  0.68120133  0.58469335  0.19909738    -0.91200
C638        C  0.74754286  0.50304927  0.09563202     1.17900
H639        H  0.57365201  0.57145435  0.09910135     0.33800
H640        H  0.66247993  0.48582586  0.20211358     0.44700
H641        H  0.66801932  0.40717728  0.07772582     0.38200
H642        H  0.50458702  0.40207563  0.15019493     0.34700
H643        H  0.59366078  0.62300331  0.21359915     0.26500
H644        H  0.53857356  0.36442677  0.23921878     0.32400
H645        H  0.55851803  0.28158947  0.12211615     0.38300
H646        H  0.65471076  0.64941738  0.14595331     0.32800
H647        H  0.63999803  0.56094200  0.02067422     0.31700
H648        H  0.63191540  0.45278059  0.01470803     0.33400
H649        H  0.61722250  0.35192248  0.04461770     0.32300
H650        H  0.70888958  0.56531914  0.19290393     0.36300
H651        H  0.76437351  0.49327075  0.16514955     0.29100
H652        H  0.41217246  0.50370329  0.13019422     0.33300
H653        H  0.50725152  0.32015807  0.07792002     0.36100
H654        H  0.61114937  0.59038641  0.04611858     0.28700
H655        H  0.75240598  0.46119500  0.19457962     0.41600
H656        H  0.56045982  0.44971313  0.26182022     0.31700
H657        H  0.55074612  0.58857044  0.21046523     0.39300
H658        H  0.57511404  0.38626276  0.03761621     0.31100
H659        H  0.52675552  0.34543865  0.20427576     0.31200
H660        H  0.42487532  0.45010883  0.13397589     0.31500
Zr661      Zr  0.51292165  0.02945079  0.37623341     2.17500
O662        O  0.43047423  0.05039535  0.38487011    -0.50900
O663        O  0.49685608  0.94510062  0.37890435    -0.74100
O664        O  0.47424304  0.02670611  0.32135689    -0.80900
O665        O  0.56105523  0.01898842  0.46313699    -0.82600
O666        O  0.49485469  0.09592274  0.29900658    -0.78200
O667        O  0.49247068  0.02523475  0.43394205    -0.89900
O668        O  0.56156051  0.90795847  0.35816145    -0.75800
O669        O  0.55420311  0.01924534  0.32658668    -0.85300
O670        O  0.58088757  0.98363127  0.39131359    -0.85000
O671        O  0.53335429  0.10813148  0.35893800    -0.71800
O672        O  0.56138945  0.07218753  0.41409112    -0.83900
Zr673      Zr  0.68761647  0.09133054  0.35920388     2.26400
Zr674      Zr  0.57751492  0.09708633  0.30951342     2.06300
Zr675      Zr  0.62998131  0.02660705  0.42761983     2.10000
Zr676      Zr  0.61777220  0.96922185  0.34019371     1.78800
O677        O  0.66380648  0.06574131  0.47497224    -0.92700
O678        O  0.58396569  0.94123419  0.28918308    -0.40500
O679        O  0.66616999  0.01355386  0.37642705    -0.77200
O680        O  0.64293541  0.04624292  0.32042106    -0.95800
O681        O  0.62192598  0.14009307  0.34806152    -0.89200
O682        O  0.64956371  0.10411955  0.41002431    -0.92000
C683        C  0.52103406  0.90790681  0.37247489     1.01800
C684        C  0.51578167  0.02112597  0.46072361     1.14700
C685        C  0.47309752  0.05699612  0.29774952     1.05500
O686        O  0.57601494  0.05985569  0.25611443    -0.94100
O687        O  0.64028946  0.13694723  0.27997995    -0.89900
O688        O  0.70482618  0.13908539  0.31282542    -0.83000
C689        C  0.68287200  0.14892087  0.28667356     1.12100
O690        O  0.50767777  0.17499459  0.42372294    -0.96100
Zr691      Zr  0.58092566  0.14983576  0.39774651     1.88900
O692        O  0.71094914  0.16831666  0.37846265    -0.72800
O693        O  0.55236095  0.17355853  0.28852948    -0.52000
O694        O  0.54812190  0.21847310  0.37002709    -0.96700
O695        O  0.58868012  0.16864554  0.45535567    -0.53900
O696        O  0.64505987  0.20581869  0.39706488    -0.73300
C697        C  0.68896640  0.20415885  0.38988556     0.99100
O698        O  0.76029847  0.06494758  0.33274829    -0.62100
O699        O  0.64035995  0.95440791  0.45912622    -0.56900
O700        O  0.74523928  0.06799895  0.39866921    -0.93600
O701        O  0.71256918  0.00103966  0.41693145    -0.92000
O702        O  0.66802820  0.90627206  0.36100518    -0.92400
O703        O  0.68150891  0.94436778  0.30423216    -0.91200
C704        C  0.74851232  0.02483957  0.40671593     1.17900
H705        H  0.57429890  0.95616464  0.40433084     0.33800
H706        H  0.66127589  0.04225941  0.30081875     0.44700
H707        H  0.67008242  0.11980443  0.42535454     0.38200
H708        H  0.50496229  0.12628862  0.35512884     0.34700
H709        H  0.59587926  0.90854621  0.28678096     0.26500
H710        H  0.53580424  0.16662029  0.26787582     0.32400
H711        H  0.55881376  0.24594852  0.38296587     0.38300
H712        H  0.65688064  0.87736141  0.34983904     0.32800
H713        H  0.63812057  0.96459240  0.48211109     0.31700
H714        H  0.63687487  0.07015662  0.49001631     0.33400
H715        H  0.62252548  0.17589649  0.45864045     0.32300
H716        H  0.70950417  0.96210814  0.31188727     0.36300
H717        H  0.76021638  0.03024900  0.33561654     0.29100
H718        H  0.41238848  0.02417604  0.37494916     0.33300
H719        H  0.51272363  0.20833025  0.43012443     0.36100
H720        H  0.61135054  0.93569230  0.45537861     0.28700
H721        H  0.75540372  0.06894987  0.30907881     0.41600
H722        H  0.55777984  0.08194073  0.24230983     0.31700
H723        H  0.54980730  0.93735122  0.29357417     0.39300
H724        H  0.58382183  0.13813807  0.46664738     0.31100
H725        H  0.52728394  0.18440843  0.30356818     0.31200
H726        H  0.42490157  0.07766959  0.37029067     0.31500
Zr727      Zr  0.45938707  0.97806892  0.12782859     2.17500
O728        O  0.44022937  0.06088361  0.11893416    -0.50900
O729        O  0.54397487  0.99286341  0.12501010    -0.74100
O730        O  0.46285426  0.01639733  0.18275596    -0.80900
O731        O  0.46934073  0.93018736  0.04113345    -0.82600
O732        O  0.39341705  0.99670439  0.20522154    -0.78200
O733        O  0.46365226  0.99891381  0.07019117    -0.89900
O734        O  0.57995934  0.92794616  0.14634119    -0.75800
O735        O  0.46876033  0.93643063  0.17750878    -0.85300
O736        O  0.50497542  0.90990229  0.11277387    -0.85000
O737        O  0.38035237  0.95857614  0.14506210    -0.71800
O738        O  0.41641897  0.93025537  0.08961333    -0.83900
Zr739      Zr  0.39587878  0.80445590  0.14410413     2.26400
Zr740      Zr  0.39045514  0.91403568  0.19443280     2.06300
Zr741      Zr  0.46148229  0.86114229  0.07678703     2.10000
Zr742      Zr  0.51769908  0.87210580  0.16367824     1.78800
O743        O  0.42361377  0.82699716  0.02889207    -0.92700
O744        O  0.54699395  0.90548668  0.21477046    -0.40500
O745        O  0.46841628  0.83276920  0.12836080    -0.77200
O746        O  0.44059925  0.84800575  0.18366132    -0.95800
O747        O  0.34714725  0.87022284  0.15552558    -0.89200
O748        O  0.38331837  0.84259046  0.09332477    -0.92000
C749        C  0.58078954  0.96833590  0.13181240     1.01800
C750        C  0.46758616  0.97554369  0.04342608     1.14700
C751        C  0.43271223  0.01784477  0.20643909     1.05500
O752        O  0.42808201  0.91515501  0.24767551    -0.94100
O753        O  0.35092840  0.85055023  0.22370680    -0.89900
O754        O  0.34757990  0.78663160  0.19035217    -0.83000
C755        C  0.33864872  0.80806524  0.21690224     1.12100
O756        O  0.31508845  0.98736841  0.08219524    -0.96100
Zr757      Zr  0.33841128  0.91189803  0.10589301     1.88900
O758        O  0.31887000  0.78243313  0.12337323    -0.72800
O759        O  0.31528536  0.94016772  0.21709244    -0.52000
O760        O  0.26934981  0.94388929  0.13355400    -0.96700
O761        O  0.31966675  0.90534273  0.04817102    -0.53900
O762        O  0.28168857  0.84867623  0.10509056    -0.73300
C763        C  0.28320474  0.80464364  0.11178814     0.99100
O764        O  0.41978711  0.73173001  0.17173322    -0.62100
O765        O  0.53416585  0.85168011  0.04544380    -0.56900
O766        O  0.42084460  0.74535587  0.10616482    -0.93600
O767        O  0.48711860  0.77877702  0.08707487    -0.92000
O768        O  0.57940101  0.82109362  0.14211846    -0.92400
O769        O  0.54294490  0.80939951  0.20035836    -0.91200
C770        C  0.46386330  0.74279324  0.09763744     1.17900
H771        H  0.53249845  0.91594341  0.09971313     0.33800
H772        H  0.44426238  0.82947855  0.20319133     0.44700
H773        H  0.36774870  0.82234439  0.07777624     0.38200
H774        H  0.36259763  0.98719463  0.14896037     0.34700
H775        H  0.58082373  0.89667901  0.21561953     0.26500
H776        H  0.32327574  0.95606434  0.23782216     0.32400
H777        H  0.24245701  0.93651008  0.11904193     0.38300
H778        H  0.60924040  0.83475679  0.15045108     0.32800
H779        H  0.52368385  0.84965147  0.02250433     0.31700
H780        H  0.41698615  0.85426274  0.01451761     0.33400
H781        H  0.31369334  0.87135080  0.04435064     0.32300
H782        H  0.52332794  0.78186355  0.19427815     0.36300
H783        H  0.45383172  0.72845310  0.16690408     0.29100
H784        H  0.46643559  0.07852444  0.12923901     0.33300
H785        H  0.28290226  0.98245983  0.07342858     0.36100
H786        H  0.55067624  0.88243252  0.04685969     0.28700
H787        H  0.41934128  0.73880545  0.19531580     0.41600
H788        H  0.40469527  0.93033696  0.26220329     0.31700
H789        H  0.54735954  0.94014612  0.21158978     0.39300
H790        H  0.34993903  0.91168216  0.03693519     0.31100
H791        H  0.30443628  0.96584512  0.20254886     0.31200
H792        H  0.41260560  0.06693275  0.13309800     0.31500
Zr793      Zr  0.99102353  0.55176822  0.12755850     2.17500
O794        O  0.01103996  0.46904146  0.11909110    -0.50900
O795        O  0.90665659  0.53546531  0.12456597    -0.74100
O796        O  0.98791015  0.51380394  0.18253073    -0.80900
O797        O  0.97866150  0.59841868  0.04070803    -0.82600
O798        O  0.05758582  0.53434221  0.20384252    -0.78200
O799        O  0.98707843  0.53033163  0.07019133    -0.89900
O800        O  0.86911058  0.60003009  0.14510010    -0.75800
O801        O  0.98016215  0.59329590  0.17705839    -0.85300
O802        O  0.94486957  0.61924788  0.11201784    -0.85000
O803        O  0.06970134  0.57296664  0.14486824    -0.71800
O804        O  0.03354424  0.59998606  0.08938089    -0.83900
Zr805      Zr  0.05157864  0.72694562  0.14357466     2.26400
Zr806      Zr  0.05772322  0.61741615  0.19417595     2.06300
Zr807      Zr  0.98743725  0.66796162  0.07536396     2.10000
Zr808      Zr  0.93006369  0.65655136  0.16293225     1.78800
O809        O  0.02635883  0.69893535  0.02698675    -0.92700
O810        O  0.90256095  0.62337774  0.21427336    -0.40500
O811        O  0.97393162  0.70490614  0.12632318    -0.77200
O812        O  0.00678283  0.68246918  0.18264311    -0.95800
O813        O  0.10077243  0.66160097  0.15533019    -0.89200
O814        O  0.06463961  0.68850703  0.09293186    -0.92000
C815        C  0.86929936  0.55950585  0.13081960     1.01800
C816        C  0.98182555  0.55325711  0.04338145     1.14700
C817        C  0.01849740  0.51302808  0.20589473     1.05500
O818        O  0.01493684  0.61827460  0.24555517    -0.94100
O819        O  0.09912189  0.68082259  0.22227476    -0.89900
O820        O  0.09899580  0.74580609  0.18979545    -0.83000
C821        C  0.10995097  0.72380010  0.21572564     1.12100
O822        O  0.13547967  0.54599027  0.08120643    -0.96100
Zr823      Zr  0.11092747  0.62046535  0.10570570     1.88900
O824        O  0.12785135  0.75098267  0.12349603    -0.72800
O825        O  0.12941317  0.59250517  0.22225065    -0.52000
O826        O  0.18106671  0.59044777  0.13309313    -0.96700
O827        O  0.12961558  0.62724203  0.04798996    -0.53900
O828        O  0.16579568  0.68549108  0.10470573    -0.73300
C829        C  0.16364603  0.72944385  0.11164635     0.99100
O830        O  0.02594658  0.79979968  0.17016588    -0.62100
O831        O  0.91502568  0.67871561  0.04417520    -0.56900
O832        O  0.02783113  0.78392006  0.10374994    -0.93600
O833        O  0.96161527  0.75053022  0.08478462    -0.92000
O834        O  0.86482277  0.70431575  0.14276264    -0.92400
O835        O  0.90632956  0.72176349  0.19792479    -0.91200
C836        C  0.98486256  0.78664650  0.09518160     1.17900
H837        H  0.91748618  0.61251972  0.09896576     0.33800
H838        H  0.00266293  0.70110984  0.20208855     0.44700
H839        H  0.08001502  0.70893180  0.07737813     0.38200
H840        H  0.08816009  0.54476604  0.14871856     0.34700
H841        H  0.87016342  0.63590800  0.21699900     0.26500
H842        H  0.11872605  0.57485770  0.24169913     0.32400
H843        H  0.20790990  0.60168587  0.11974636     0.38300
H844        H  0.83610063  0.68959207  0.15203730     0.32800
H845        H  0.92533493  0.67898996  0.02116398     0.31700
H846        H  0.02418061  0.67317887  0.01076942     0.33400
H847        H  0.13601197  0.66117733  0.04426460     0.32300
H848        H  0.92476590  0.74917773  0.19003318     0.36300
H849        H  0.99173724  0.80169237  0.16553585     0.29100
H850        H  0.98402946  0.45132913  0.12831398     0.33300
H851        H  0.16818025  0.55115905  0.07346149     0.36100
H852        H  0.89732933  0.64877800  0.04659890     0.28700
H853        H  0.02696212  0.79356180  0.19384369     0.41600
H854        H  0.03483244  0.59969798  0.26065752     0.31700
H855        H  0.89796307  0.58928098  0.20996438     0.39300
H856        H  0.09927210  0.62133991  0.03674136     0.31100
H857        H  0.14400146  0.56843239  0.20795252     0.31200
H858        H  0.03743671  0.46292447  0.13430031     0.31500
Zr859      Zr  0.93888491  0.49967595  0.37631823     2.17500
O860        O  0.02140777  0.47902564  0.38476626    -0.50900
O861        O  0.95448924  0.58410577  0.37963262    -0.74100
O862        O  0.97696417  0.50466289  0.32136343    -0.80900
O863        O  0.89118477  0.50943134  0.46322887    -0.82600
O864        O  0.95764003  0.43535423  0.29867861    -0.78200
O865        O  0.95968150  0.50269026  0.43400082    -0.89900
O866        O  0.89014737  0.62085369  0.35810715    -0.75800
O867        O  0.89746096  0.50985644  0.32672439    -0.85300
O868        O  0.87083968  0.54526745  0.39158787    -0.85000
O869        O  0.91909228  0.42086862  0.35853858    -0.71800
O870        O  0.89085200  0.45624318  0.41406865    -0.83900
Zr871      Zr  0.76501863  0.43702347  0.35906761     2.26400
Zr872      Zr  0.87494930  0.43204320  0.30915643     2.06300
Zr873      Zr  0.82223913  0.50152000  0.42778891     2.10000
Zr874      Zr  0.83379096  0.55962170  0.34048561     1.78800
O875        O  0.78965557  0.46175242  0.47532094    -0.92700
O876        O  0.86628416  0.58962797  0.28958767    -0.40500
O877        O  0.78581207  0.51473506  0.37665485    -0.77200
O878        O  0.80934977  0.48257924  0.32031642    -0.95800
O879        O  0.83090943  0.38850251  0.34763842    -0.89200
O880        O  0.80306491  0.42405921  0.40986347    -0.92000
C881        C  0.93040590  0.62118866  0.37272165     1.01800
C882        C  0.93642895  0.50690958  0.46080578     1.14700
C883        C  0.97860769  0.47472800  0.29757545     1.05500
O884        O  0.87469396  0.46925158  0.25574279    -0.94100
O885        O  0.81236800  0.39087155  0.28018117    -0.89900
O886        O  0.74746758  0.38949621  0.31272323    -0.83000
C887        C  0.76961898  0.37926357  0.28672443     1.12100
O888        O  0.94703202  0.35588979  0.42168160    -0.96100
Zr889      Zr  0.87184507  0.37859911  0.39733517     1.88900
O890        O  0.74178500  0.36014009  0.37858375    -0.72800
O891        O  0.90244037  0.35721803  0.28670520    -0.52000
O892        O  0.90291551  0.30825295  0.37071031    -0.96700
O893        O  0.86403185  0.35828960  0.45470340    -0.53900
O894        O  0.80776683  0.32257050  0.39689886    -0.73300
C895        C  0.76381626  0.32426635  0.38989935     0.99100
O896        O  0.69284262  0.46187721  0.33133907    -0.62100
O897        O  0.81101350  0.57354720  0.45933291    -0.56900
O898        O  0.70668071  0.46075809  0.39800857    -0.93600
O899        O  0.73955646  0.52688600  0.41771627    -0.92000
O900        O  0.78252594  0.62111250  0.36220054    -0.92400
O901        O  0.77041215  0.58540571  0.30457939    -0.91200
C902        C  0.70363977  0.50358027  0.40697153     1.17900
H903        H  0.87716437  0.57275936  0.40465592     0.33800
H904        H  0.79093570  0.48660832  0.30075662     0.44700
H905        H  0.78258801  0.40825471  0.42516942     0.38200
H906        H  0.94760264  0.40295738  0.35458682     0.34700
H907        H  0.85877586  0.62378305  0.28973834     0.26500
H908        H  0.91762811  0.36533377  0.26574550     0.32400
H909        H  0.89397371  0.28173906  0.38516060     0.38300
H910        H  0.79879055  0.65111651  0.35695851     0.32800
H911        H  0.80649147  0.56254676  0.48197904     0.31700
H912        H  0.81737822  0.45450456  0.48910413     0.33400
H913        H  0.83014593  0.35116163  0.45795389     0.32300
H914        H  0.74302988  0.56566916  0.31085976     0.36300
H915        H  0.68924624  0.49560608  0.33707769     0.29100
H916        H  0.03927649  0.50602973  0.37568895     0.33300
H917        H  0.94252654  0.32321984  0.42969026     0.36100
H918        H  0.84215071  0.58942178  0.45946648     0.28700
H919        H  0.70065719  0.46286324  0.30787675     0.41600
H920        H  0.89180952  0.44683643  0.24150929     0.31700
H921        H  0.90099919  0.58838344  0.29229462     0.39300
H922        H  0.86910333  0.38846566  0.46634850     0.31100
H923        H  0.92869326  0.34709438  0.30100418     0.31200
H924        H  0.02738730  0.45275126  0.36941549     0.31500
Zr925      Zr  0.99325015  0.97949760  0.37625382     2.17500
O926        O  0.01167808  0.06252253  0.38486465    -0.50900
O927        O  0.90839980  0.99456428  0.37832404    -0.74100
O928        O  0.99025801  0.01671508  0.32096691    -0.80900
O929        O  0.97957901  0.93136216  0.46271993    -0.82600
O930        O  0.06027027  0.99797783  0.29887217    -0.78200
O931        O  0.98769465  0.00005880  0.43387768    -0.89900
O932        O  0.87236445  0.93000094  0.35655821    -0.75800
O933        O  0.98615777  0.93818786  0.32642623    -0.85300
O934        O  0.94720720  0.91140353  0.39034417    -0.85000
O935        O  0.07306404  0.95975464  0.36042862    -0.71800
O936        O  0.03496763  0.93117567  0.41475400    -0.83900
Zr937      Zr  0.05630911  0.80520079  0.35980242     2.26400
Zr938      Zr  0.06488335  0.91562575  0.31072317     2.06300
Zr939      Zr  0.98904976  0.86254661  0.42727511     2.10000
Zr940      Zr  0.93507086  0.87509361  0.33875849     1.78800
O941        O  0.02728021  0.82953662  0.47526167    -0.92700
O942        O  0.90569363  0.91128723  0.28887960    -0.40500
O943        O  0.97794797  0.82647919  0.37572848    -0.77200
O944        O  0.01305524  0.85060265  0.32041442    -0.95800
O945        O  0.10622244  0.87070523  0.34988217    -0.89200
O946        O  0.06708927  0.84290459  0.41099334    -0.92000
C947        C  0.87149545  0.97025747  0.37124736     1.01800
C948        C  0.98232771  0.97663564  0.46051313     1.14700
C949        C  0.02058044  0.01843744  0.29740035     1.05500
O950        O  0.03510759  0.91779071  0.25519771    -0.94100
O951        O  0.10307572  0.85156683  0.28111233    -0.89900
O952        O  0.10431366  0.78671255  0.31371612    -0.83000
C953        C  0.11390527  0.80851000  0.28743744     1.12100
O954        O  0.13634952  0.98509086  0.42652627    -0.96100
Zr955      Zr  0.11327865  0.91168984  0.39986926     1.88900
O956        O  0.13169293  0.78131930  0.38154558    -0.72800
O957        O  0.14306298  0.94182402  0.29372772    -0.52000
O958        O  0.18382215  0.94443012  0.37451967    -0.96700
O959        O  0.13067287  0.90279580  0.45764733    -0.53900
O960        O  0.16880797  0.84724145  0.40044001    -0.73300
C961        C  0.16707234  0.80322259  0.39367031     0.99100
O962        O  0.03251664  0.73345894  0.33099861    -0.62100
O963        O  0.91586310  0.85173175  0.45760105    -0.56900
O964        O  0.02947797  0.74652431  0.39762780    -0.93600
O965        O  0.96321289  0.78030218  0.41660287    -0.92000
O966        O  0.87392465  0.82153947  0.35803674    -0.92400
O967        O  0.91319938  0.81480862  0.29926770    -0.91200
C968        C  0.98645610  0.74408893  0.40628386     1.17900
H969        H  0.91937514  0.91741911  0.40311319     0.33800
H970        H  0.00985898  0.83252934  0.30063157     0.44700
H971        H  0.08206095  0.82229489  0.42660653     0.38200
H972        H  0.09105215  0.98824613  0.35687577     0.34700
H973        H  0.87155111  0.90378095  0.28854804     0.26500
H974        H  0.13782912  0.96004372  0.27349099     0.32400
H975        H  0.21034314  0.93326945  0.38819437     0.38300
H976        H  0.84406912  0.83480407  0.34946049     0.32800
H977        H  0.92567790  0.85088111  0.48070191     0.31700
H978        H  0.02179214  0.85317937  0.49259105     0.33400
H979        H  0.14127319  0.86971538  0.46033068     0.32300
H980        H  0.93059596  0.78620114  0.30621750     0.36300
H981        H  0.99935242  0.72805953  0.33754051     0.29100
H982        H  0.98511188  0.07978589  0.37467995     0.33300
H983        H  0.16917551  0.98018025  0.43409632     0.36100
H984        H  0.89843958  0.88185932  0.45531973     0.28700
H985        H  0.02977553  0.74236740  0.30778311     0.41600
H986        H  0.00032053  0.91806003  0.25754416     0.31700
H987        H  0.90690794  0.94577010  0.29279642     0.39300
H988        H  0.09941647  0.90387630  0.46841229     0.31100
H989        H  0.15248370  0.96571242  0.31006267     0.31200
H990        H  0.03898145  0.06873244  0.37044691     0.31500
Zr991      Zr  0.93778680  0.02927132  0.12789455     2.17500
O992        O  0.02065981  0.04904733  0.11993514    -0.50900
O993        O  0.95313564  0.94472662  0.12535557    -0.74100
O994        O  0.97578159  0.02619592  0.18291138    -0.80900
O995        O  0.89058163  0.01924178  0.04093753    -0.82600
O996        O  0.95570489  0.09558827  0.20534717    -0.78200
O997        O  0.95896245  0.02452570  0.07042581    -0.89900
O998        O  0.88774800  0.90812050  0.14549856    -0.75800
O999        O  0.89592902  0.01974955  0.17737265    -0.85300
O1000       O  0.87009737  0.98319744  0.11260040    -0.85000
O1001       O  0.91776645  0.10844760  0.14458274    -0.71800
O1002       O  0.88988542  0.07169274  0.08940527    -0.83900
Zr1003     Zr  0.76379787  0.09156944  0.14347325     2.26400
Zr1004     Zr  0.87322025  0.09802883  0.19387680     2.06300
Zr1005     Zr  0.82124216  0.02605216  0.07640611     2.10000
Zr1006     Zr  0.83212741  0.97020198  0.16342637     1.78800
O1007       O  0.78718214  0.06262341  0.02799388    -0.92700
O1008       O  0.86869319  0.93903487  0.21293656    -0.40500
O1009       O  0.79253875  0.01905805  0.12793038    -0.77200
O1010       O  0.80748695  0.04732263  0.18325080    -0.95800
O1011       O  0.82915683  0.14081940  0.15478709    -0.89200
O1012       O  0.80188969  0.10416388  0.09268753    -0.92000
C1013       C  0.92852860  0.90770822  0.13149237     1.01800
C1014       C  0.93590271  0.02092106  0.04353750     1.14700
C1015       C  0.97742446  0.05656807  0.20643248     1.05500
O1016       O  0.87401950  0.06005048  0.24702378    -0.94100
O1017       O  0.81021205  0.13811396  0.22295508    -0.89900
O1018       O  0.74641614  0.14039654  0.18949991    -0.83000
C1019       C  0.76778687  0.15012146  0.21591713     1.12100
O1020       O  0.94534340  0.17311099  0.08031682    -0.96100
Zr1021     Zr  0.87070091  0.14974010  0.10515888     1.88900
O1022       O  0.74081583  0.16813019  0.12271081    -0.72800
O1023       O  0.89848098  0.17336541  0.21671998    -0.52000
O1024       O  0.90220235  0.21977159  0.13192928    -0.96700
O1025       O  0.86299664  0.16793983  0.04741757    -0.53900
O1026       O  0.80678785  0.20583938  0.10459067    -0.73300
C1027       C  0.76275648  0.20398979  0.11122966     0.99100
O1028       O  0.69004273  0.06928615  0.17045386    -0.62100
O1029       O  0.81236983  0.95207999  0.04644707    -0.56900
O1030       O  0.70570870  0.06677189  0.10483015    -0.93600
O1031       O  0.73900904  0.00019811  0.08630388    -0.92000
O1032       O  0.77964562  0.90899893  0.14287265    -0.92400
O1033       O  0.77163236  0.94614523  0.20220364    -0.91200
C1034       C  0.70308176  0.02364008  0.09667125     1.17900
H1035       H  0.87640327  0.95586876  0.09940170     0.33800
H1036       H  0.78891180  0.04377330  0.20276752     0.44700
H1037       H  0.78156681  0.11944286  0.07704628     0.38200
H1038       H  0.94622069  0.12642484  0.14854891     0.34700
H1039       H  0.86113162  0.90487458  0.21300123     0.26500
H1040       H  0.91340476  0.16548861  0.23781003     0.32400
H1041       H  0.89095288  0.24667574  0.11864194     0.38300
H1042       H  0.79287642  0.87917922  0.15158148     0.32800
H1043       H  0.80529134  0.96186073  0.02384193     0.31700
H1044       H  0.81206766  0.06005085  0.01116273     0.33400
H1045       H  0.82936499  0.17621174  0.04418981     0.32300
H1046       H  0.74317356  0.96415106  0.19577294     0.36300
H1047       H  0.68665261  0.03512216  0.16610693     0.29100
H1048       H  0.03827870  0.02500731  0.13252501     0.33300
H1049       H  0.94061996  0.20599399  0.07279227     0.36100
H1050       H  0.84443320  0.93825335  0.04522686     0.28700
H1051       H  0.69639042  0.07043677  0.19412034     0.41600
H1052       H  0.89458319  0.08025580  0.26063850     0.31700
H1053       H  0.90322595  0.94014537  0.20923619     0.39300
H1054       H  0.86675118  0.13710093  0.03635612     0.31100
H1055       H  0.92481206  0.18405525  0.20268635     0.31200
H1056       H  0.02520638  0.07879834  0.13219601     0.31500
C1057       C  0.00788592  0.03690457  0.26579260    -0.12800
C1058       C  0.99813171  0.04501420  0.23757697    -0.14400
C1059       C  0.94712583  0.66529378  0.38586218    -0.12800
C1060       C  0.96228511  0.70097403  0.39822480    -0.14400
C1061       C  0.94513028  0.86405467  0.11756496    -0.12800
C1062       C  0.96051236  0.82922874  0.10420736    -0.14400
C1063       C  0.13103674  0.75174380  0.24045634    -0.12800
C1064       C  0.13250394  0.78008555  0.26202945    -0.14400
C1065       C  0.99802099  0.48706742  0.26619044    -0.12800
C1066       C  0.00672348  0.49503877  0.23779433    -0.14400
C1067       C  0.20521313  0.75634378  0.10697861    -0.12800
C1068       C  0.24110428  0.77850010  0.10704393    -0.14400
C1069       C  0.62487546  0.98457979  0.11828320    -0.12800
C1070       C  0.66016633  0.99964122  0.10533705    -0.14400
C1071       C  0.73745165  0.28217979  0.39398727    -0.12800
C1072       C  0.71534423  0.24624145  0.39395235    -0.14400
C1073       C  0.82717773  0.98650629  0.38459569    -0.12800
C1074       C  0.79163634  0.00122704  0.39753519    -0.14400
C1075       C  0.71068542  0.16988946  0.26193635    -0.12800
C1076       C  0.73944079  0.17045488  0.24066452    -0.14400
C1077       C  0.45358840  0.04527526  0.26628178    -0.12800
C1078       C  0.44496228  0.03699930  0.23791685    -0.14400
C1079       C  0.71425672  0.28191339  0.10678325    -0.12800
C1080       C  0.73632449  0.24595624  0.10663625    -0.14400
C1081       C  0.82569550  0.54253132  0.11703105    -0.12800
C1082       C  0.79049501  0.52725026  0.10408587    -0.14400
C1083       C  0.74182113  0.35845631  0.26192062    -0.12800
C1084       C  0.71295333  0.35830417  0.24072994    -0.14400
C1085       C  0.48804832  0.69967907  0.10584317    -0.12800
C1086       C  0.50380240  0.66423549  0.11824717    -0.14400
C1087       C  0.24455004  0.75460879  0.39906901    -0.12800
C1088       C  0.20868264  0.77670911  0.39888524    -0.14400
C1089       C  0.62523963  0.54291265  0.38560942    -0.12800
C1090       C  0.66061115  0.52766308  0.39839442    -0.14400
C1091       C  0.50412949  0.86420196  0.38611839    -0.12800
C1092       C  0.48883048  0.82918323  0.39927839    -0.14400
C1093       C  0.31885309  0.77982635  0.24201822    -0.12800
C1094       C  0.31915088  0.75132090  0.26351247    -0.14400
C1095       C  0.45353409  0.48482504  0.23835488    -0.12800
C1096       C  0.44433587  0.49340536  0.26658598    -0.14400
C1097       C  0.96269349  0.50678537  0.49068215    -0.12800
C1098       C  0.98404312  0.50642348  0.51607257    -0.14400
C1099       C  0.98172909  0.52666399  0.01374236    -0.12800
C1100       C  0.98241035  0.50501801  0.98852661    -0.14400
C1101       C  0.94833518  0.54803451  0.73819180    -0.12800
C1102       C  0.93956626  0.53937560  0.76668127    -0.14400
C1103       C  0.46765244  0.50575792  0.51633443    -0.12800
C1104       C  0.46805491  0.52698377  0.49091628    -0.14400
C1105       C  0.32590753  0.48902193  0.60470839    -0.12800
C1106       C  0.29068179  0.50647764  0.59271921    -0.14400
C1107       C  0.48760992  0.50859107  0.01416714    -0.12800
C1108       C  0.46618254  0.50802976  0.98883890    -0.14400
C1109       C  0.24017787  0.66465899  0.76250708    -0.12800
C1110       C  0.20993949  0.66425769  0.74253822    -0.14400
C1111       C  0.12391702  0.48905208  0.90104742    -0.12800
C1112       C  0.15921390  0.50665765  0.91286607    -0.14400
C1113       C  0.50134627  0.54907537  0.76685139    -0.12800
C1114       C  0.50998255  0.54051492  0.73832414    -0.14400
C1115       C  0.74327353  0.25284136  0.62153373    -0.12800
C1116       C  0.70631247  0.27423532  0.62164559    -0.14400
C1117       C  0.98179943  0.00270500  0.49050109    -0.12800
C1118       C  0.98242482  0.02396721  0.51594826    -0.14400
C1119       C  0.99933992  0.36616199  0.60402950    -0.12800
C1120       C  0.98168599  0.33093617  0.59224430    -0.14400
C1121       C  0.82461647  0.24896854  0.74247599    -0.12800
C1122       C  0.82468067  0.27881321  0.76270789    -0.14400
C1123       C  0.23528086  0.74556779  0.88494768    -0.12800
C1124       C  0.21437329  0.78273183  0.88486147    -0.14400
C1125       C  0.98497621  0.02208325  0.98891566    -0.12800
C1126       C  0.96274289  0.02117858  0.01391564    -0.14400
C1127       C  0.94292576  0.98951941  0.73859117    -0.12800
C1128       C  0.95093139  0.98118091  0.76723345    -0.14400
C1129       C  0.00194183  0.16328086  0.90143763    -0.12800
C1130       C  0.98403591  0.19825065  0.91338986    -0.14400
C1131       C  0.21402977  0.74628702  0.62079876    -0.12800
C1132       C  0.23526221  0.78332719  0.62047192    -0.14400
C1133       C  0.46779180  0.02152459  0.51584982    -0.12800
C1134       C  0.48945469  0.02102255  0.49058031    -0.14400
C1135       C  0.12564480  0.04218662  0.60357777    -0.12800
C1136       C  0.16059629  0.02417835  0.59160259    -0.14400
C1137       C  0.21030917  0.86455194  0.76231057    -0.12800
C1138       C  0.23982098  0.86478474  0.74181214    -0.14400
C1139       C  0.44983830  0.16367565  0.60419181    -0.12800
C1140       C  0.46747590  0.19888335  0.59229768    -0.14400
C1141       C  0.70687705  0.25306136  0.88349136    -0.12800
C1142       C  0.74424700  0.27365383  0.88370177    -0.14400
C1143       C  0.46742896  0.02338161  0.98816361    -0.12800
C1144       C  0.46781035  0.00191168  0.01352862    -0.14400
C1145       C  0.32698075  0.03975027  0.90091051    -0.12800
C1146       C  0.29209465  0.02190650  0.91303191    -0.14400
C1147       C  0.62656596  0.24786195  0.76162283    -0.12800
C1148       C  0.62608551  0.27839581  0.74184519    -0.14400
C1149       C  0.44990714  0.36545543  0.89992542    -0.12800
C1150       C  0.46719997  0.32997992  0.91162003    -0.14400
C1151       C  0.50199210  0.97789967  0.73760209    -0.12800
C1152       C  0.51038956  0.98669572  0.76613987    -0.14400
loop_ 
_geom_bond_atom_site_label_1 
_geom_bond_atom_site_label_2 
_geom_bond_distance 
_geom_bond_site_symmetry_2 
_ccdc_geom_bond_type 
Zr1           O2   2.436   1_545  S
Zr1           O3   2.442       .  S
Zr1           O4   2.454       .  S
Zr1           O7   2.511       .  S
Zr1           O9   2.387       .  S
Zr1          O10   2.399       .  S
Zr1          O11   2.429       .  S
Zr1          O12   2.412       .  S
O2           H58   0.990       .  S
O2           H66   0.990       .  S
O3           C23   1.284       .  A
O4           C25   1.290       .  A
O5          Zr15   2.395       .  S
O5           C24   1.268       .  A
O6          Zr14   2.443       .  S
O6           C25   1.287       .  A
O7           C24   1.295       .  A
O8          Zr16   2.474       .  S
O8           C23   1.290       .  A
O9          Zr14   2.391       .  S
O9          Zr16   2.350       .  S
O10         Zr15   2.409       .  S
O10         Zr16   2.357       .  S
O10          H45   0.965       .  S
O11         Zr14   2.426       .  S
O11         Zr31   2.361       .  S
O11          H48   0.964       .  S
O12         Zr15   2.413       .  S
O12         Zr31   2.407       .  S
Zr13         O38   2.441       .  S
Zr13         O32   2.446       .  S
Zr13         O40   2.375       .  S
Zr13         O28   2.406       .  S
Zr13         O19   2.415       .  S
Zr13         O20   2.402       .  S
Zr13         O21   2.371       .  S
Zr13         O22   2.369       .  S
Zr14         O33   2.434       .  S
Zr14         O26   2.434       .  S
Zr14         O27   2.494       .  S
Zr14         O20   2.404       .  S
Zr14         O21   2.385       .  S
Zr15         O17   2.439       .  S
Zr15         O39   2.440       .  S
Zr15         O41   2.440       .  S
Zr15         O19   2.381       .  S
Zr15         O22   2.383       .  S
Zr16         O42   2.439       .  S
Zr16         O43   2.435       .  S
Zr16         O18   2.438       .  S
Zr16         O19   2.436       .  S
Zr16         O20   2.373       .  S
O17          H54   0.990       .  S
O18          H49   0.990       .  S
O18          H63   0.990       .  S
O20          H46   0.962       .  S
O21         Zr31   2.389       .  S
O22         Zr31   2.351       .  S
O22          H47   0.963       .  S
C23        C1145   1.454       .  S
C24        C1152   1.461   1_545  S
C25        C1143   1.436       .  S
O26          H62   0.990       .  S
O27          C29   1.294       .  A
O28          C29   1.274       .  A
C29        C1150   1.449       .  S
O30         Zr31   2.439       .  S
O30          H59   0.990       .  S
Zr31         O34   2.437       .  S
Zr31         O35   2.440       .  S
Zr31         O36   2.423       .  S
O32          C37   1.286       .  A
O33          H50   0.990       .  S
O33          H65   0.990       .  S
O34          H51   0.990       .  S
O35          H55   0.990       .  S
O35          H64   0.990       .  S
O36          C37   1.280       .  A
C37        C1141   1.439       .  S
O38          H57   0.990       .  S
O38          H61   0.989       .  S
O39          H53   0.990       .  S
O39          H60   0.990       .  S
O40          C44   1.272       .  A
O41          C44   1.284       .  A
O42          H52   0.990       .  S
O43          H56   0.990       .  S
C44        C1147   1.405       .  S
Zr67         O68   2.435   1_545  S
Zr67         O69   2.448       .  S
Zr67         O70   2.450       .  S
Zr67         O73   2.510   1_545  S
Zr67         O75   2.388       .  S
Zr67         O76   2.399       .  S
Zr67         O77   2.429   1_545  S
Zr67         O78   2.411   1_545  S
O68         H124   0.990   1_565  S
O68         H132   0.990       .  S
O69          C89   1.286       .  A
O70          C91   1.290       .  A
O71         Zr81   2.395       .  S
O71          C90   1.268       .  A
O72         Zr80   2.445       .  S
O72          C91   1.288       .  A
O73          C90   1.295       .  A
O74         Zr82   2.473       .  S
O74          C89   1.290       .  A
O75         Zr80   2.394       .  S
O75         Zr82   2.355       .  S
O76         Zr81   2.410   1_545  S
O76         Zr82   2.357       .  S
O76         H111   0.964       .  S
O77         Zr80   2.427   1_565  S
O77         Zr97   2.366       .  S
O77         H114   0.964       .  S
O78         Zr81   2.409       .  S
O78         Zr97   2.405       .  S
Zr79        O104   2.440       .  S
Zr79         O98   2.443       .  S
Zr79        O106   2.372       .  S
Zr79         O94   2.407       .  S
Zr79         O85   2.412       .  S
Zr79         O86   2.400   1_565  S
Zr79         O87   2.371       .  S
Zr79         O88   2.373       .  S
Zr80         O99   2.434   1_545  S
Zr80         O92   2.434       .  S
Zr80         O93   2.495       .  S
Zr80         O86   2.402       .  S
Zr80         O87   2.383   1_545  S
Zr81         O83   2.438       .  S
Zr81        O105   2.439   1_565  S
Zr81        O107   2.440       .  S
Zr81         O85   2.380       .  S
Zr81         O88   2.380       .  S
Zr82        O108   2.440       .  S
Zr82        O109   2.436       .  S
Zr82         O84   2.438       .  S
Zr82         O85   2.432   1_545  S
Zr82         O86   2.374       .  S
O83         H120   0.990       .  S
O84         H115   0.990       .  S
O84         H129   0.990       .  S
O86         H112   0.962       .  S
O87         Zr97   2.390       .  S
O88         Zr97   2.351       .  S
O88         H113   0.964       .  S
C89        C1139   1.456       .  S
C90        C1151   1.461       .  S
C91        C1133   1.436       .  S
O92         H128   0.990       .  S
O93          C95   1.294   1_545  A
O94          C95   1.274       .  A
C95        C1136   1.450   1_565  S
O96         Zr97   2.440       .  S
O96         H125   0.990       .  S
Zr97        O100   2.437       .  S
Zr97        O101   2.440       .  S
Zr97        O102   2.428       .  S
O98         C103   1.285       .  A
O99         H116   0.990       .  S
O99         H131   0.990       .  S
O100        H117   0.990       .  S
O101        H121   0.990       .  S
O101        H130   0.990       .  S
O102        C103   1.281       .  A
C103       C1132   1.440       .  S
O104        H123   0.990       .  S
O104        H127   0.990   1_565  S
O105        H119   0.990   1_545  S
O105        H126   0.990       .  S
O106        C110   1.272       .  A
O107        C110   1.284       .  A
O108        H118   0.990       .  S
O109        H122   0.990       .  S
C110       C1138   1.405       .  S
Zr133       O134   2.435   1_445  S
Zr133       O135   2.438   1_455  S
Zr133       O136   2.447   1_455  S
Zr133       O139   2.505   1_455  S
Zr133       O141   2.388       .  S
Zr133       O142   2.399       .  S
Zr133       O143   2.426   1_545  S
Zr133       O144   2.409   1_545  S
O134        H190   0.990   1_565  S
O134        H198   0.990       .  S
O135        C155   1.284   1_655  A
O136        C157   1.289   1_655  A
O137       Zr147   2.395   1_655  S
O137        C156   1.268       .  A
O138       Zr146   2.444       .  S
O138        C157   1.288       .  A
O139        C156   1.294   1_545  A
O140       Zr148   2.477       .  S
O140        C155   1.291       .  A
O141       Zr146   2.391       .  S
O141       Zr148   2.351       .  S
O142       Zr147   2.407   1_545  S
O142       Zr148   2.354       .  S
O142        H177   0.964       .  S
O143       Zr146   2.428   1_565  S
O143       Zr163   2.361       .  S
O143        H180   0.964       .  S
O144       Zr147   2.409       .  S
O144       Zr163   2.404       .  S
Zr145       O170   2.441       .  S
Zr145       O164   2.442       .  S
Zr145       O172   2.377       .  S
Zr145       O160   2.405       .  S
Zr145       O151   2.414       .  S
Zr145       O152   2.403   1_565  S
Zr145       O153   2.370       .  S
Zr145       O154   2.371       .  S
Zr146       O165   2.435   1_545  S
Zr146       O158   2.434       .  S
Zr146       O159   2.494       .  S
Zr146       O152   2.401       .  S
Zr146       O153   2.386   1_545  S
Zr147       O149   2.438       .  S
Zr147       O171   2.439   1_565  S
Zr147       O173   2.438       .  S
Zr147       O151   2.380       .  S
Zr147       O154   2.381       .  S
Zr148       O174   2.439       .  S
Zr148       O175   2.435       .  S
Zr148       O150   2.438       .  S
Zr148       O151   2.434   1_545  S
Zr148       O152   2.375       .  S
O149        H186   0.990       .  S
O150        H181   0.990       .  S
O150        H195   0.990       .  S
O152        H178   0.962       .  S
O153       Zr163   2.391       .  S
O154       Zr163   2.351       .  S
O154        H179   0.964       .  S
C155       C1129   1.453       .  S
C156       C1128   1.460       .  S
C157       C1125   1.433   1_455  S
O158        H194   0.990       .  S
O159        C161   1.294   1_545  A
O160        C161   1.274       .  A
C161       C1146   1.448   1_565  S
O162       Zr163   2.439       .  S
O162        H191   0.990       .  S
Zr163       O166   2.436       .  S
Zr163       O167   2.440       .  S
Zr163       O168   2.422       .  S
O164        C169   1.285       .  A
O165        H182   0.990       .  S
O165        H197   0.990       .  S
O166        H183   0.990       .  S
O167        H187   0.990       .  S
O167        H196   0.990       .  S
O168        C169   1.280       .  A
C169       C1124   1.438       .  S
O170        H189   0.990       .  S
O170        H193   0.990   1_565  S
O171        H185   0.990   1_545  S
O171        H192   0.990       .  S
O172        C176   1.272       .  A
O173        C176   1.284       .  A
O174        H184   0.990       .  S
O175        H188   0.990       .  S
C176       C1137   1.405       .  S
Zr199       O200   2.436   1_545  S
Zr199       O201   2.444   1_655  S
Zr199       O202   2.456       .  S
Zr199       O205   2.511       .  S
Zr199       O207   2.387   1_655  S
Zr199       O208   2.402       .  S
Zr199       O209   2.428       .  S
Zr199       O210   2.411       .  S
O200        H256   0.990       .  S
O200        H264   0.990       .  S
O201        C221   1.285       .  A
O202        C223   1.291       .  A
O203       Zr213   2.393       .  S
O203        C222   1.267       .  A
O204       Zr212   2.444       .  S
O204        C223   1.288       .  A
O205        C222   1.295       .  A
O206       Zr214   2.478       .  S
O206        C221   1.291       .  A
O207       Zr212   2.390   1_455  S
O207       Zr214   2.352       .  S
O208       Zr213   2.409       .  S
O208       Zr214   2.354   1_655  S
O208        H243   0.965   1_655  S
O209       Zr212   2.426       .  S
O209       Zr229   2.364       .  S
O209        H246   0.964       .  S
O210       Zr213   2.410       .  S
O210       Zr229   2.404       .  S
Zr211       O236   2.440       .  S
Zr211       O230   2.443       .  S
Zr211       O238   2.373       .  S
Zr211       O226   2.404       .  S
Zr211       O217   2.415       .  S
Zr211       O218   2.404       .  S
Zr211       O219   2.371       .  S
Zr211       O220   2.370       .  S
Zr212       O231   2.433       .  S
Zr212       O224   2.434   1_655  S
Zr212       O225   2.493       .  S
Zr212       O218   2.402       .  S
Zr212       O219   2.385       .  S
Zr213       O215   2.438       .  S
Zr213       O237   2.440       .  S
Zr213       O239   2.439       .  S
Zr213       O217   2.378       .  S
Zr213       O220   2.381       .  S
Zr214       O240   2.438       .  S
Zr214       O241   2.435       .  S
Zr214       O216   2.438       .  S
Zr214       O217   2.434   1_455  S
Zr214       O218   2.376   1_455  S
O215        H252   0.990       .  S
O216        H247   0.990       .  S
O216        H261   0.990       .  S
O218        H244   0.962   1_655  S
O219       Zr229   2.391       .  S
O220       Zr229   2.349       .  S
O220        H245   0.964       .  S
C221       C1135   1.456       .  S
C222       C1127   1.460   1_545  S
C223       C1118   1.437       .  S
O224        H260   0.990       .  S
O225        C227   1.293       .  A
O226        C227   1.273       .  A
C227       C1120   1.449       .  S
O228       Zr229   2.439       .  S
O228        H257   0.990       .  S
Zr229       O232   2.436       .  S
Zr229       O233   2.440       .  S
Zr229       O234   2.430       .  S
O230        C235   1.285       .  A
O231        H248   0.990       .  S
O231        H263   0.990       .  S
O232        H249   0.990       .  S
O233        H253   0.990       .  S
O233        H262   0.990       .  S
O234        C235   1.282       .  A
C235       C1115   1.441       .  S
O236        H255   0.990       .  S
O236        H259   0.990       .  S
O237        H251   0.990       .  S
O237        H258   0.990       .  S
O238        C242   1.272       .  A
O239        C242   1.284       .  A
O240        H250   0.990       .  S
O241        H254   0.990       .  S
C242       C1121   1.404       .  S
Zr265       O266   2.436       .  S
Zr265       O267   2.444       .  S
Zr265       O268   2.451       .  S
Zr265       O271   2.508       .  S
Zr265       O273   2.389       .  S
Zr265       O274   2.400       .  S
Zr265       O275   2.427       .  S
Zr265       O276   2.410       .  S
O266        H322   0.990       .  S
O266        H330   0.990       .  S
O267        C287   1.285       .  A
O268        C289   1.290       .  A
O269       Zr279   2.397       .  S
O269        C288   1.268       .  A
O270       Zr278   2.442       .  S
O270        C289   1.287       .  A
O271        C288   1.294       .  A
O272       Zr280   2.469       .  S
O272        C287   1.289       .  A
O273       Zr278   2.393       .  S
O273       Zr280   2.353       .  S
O274       Zr279   2.407       .  S
O274       Zr280   2.355       .  S
O274        H309   0.964       .  S
O275       Zr278   2.427       .  S
O275       Zr295   2.363       .  S
O275        H312   0.964       .  S
O276       Zr279   2.410       .  S
O276       Zr295   2.403       .  S
Zr277       O302   2.441       .  S
Zr277       O296   2.440       .  S
Zr277       O304   2.374       .  S
Zr277       O292   2.407       .  S
Zr277       O283   2.416       .  S
Zr277       O284   2.400       .  S
Zr277       O285   2.371       .  S
Zr277       O286   2.372       .  S
Zr278       O297   2.434       .  S
Zr278       O290   2.433       .  S
Zr278       O291   2.498       .  S
Zr278       O284   2.401       .  S
Zr278       O285   2.385       .  S
Zr279       O281   2.439       .  S
Zr279       O303   2.439       .  S
Zr279       O305   2.439       .  S
Zr279       O283   2.384       .  S
Zr279       O286   2.382       .  S
Zr280       O306   2.438       .  S
Zr280       O307   2.435       .  S
Zr280       O282   2.438       .  S
Zr280       O283   2.434       .  S
Zr280       O284   2.373       .  S
O281        H318   0.990       .  S
O282        H313   0.990       .  S
O282        H327   0.990       .  S
O284        H310   0.962       .  S
O285       Zr295   2.392       .  S
O286       Zr295   2.349       .  S
O286        H311   0.964       .  S
C287       C1149   1.454       .  S
C288       C1113   1.461       .  S
C289       C1108   1.434       .  S
O290        H326   0.990       .  S
O291        C293   1.294       .  A
O292        C293   1.273       .  A
C293       C1112   1.452       .  S
O294       Zr295   2.439       .  S
O294        H323   0.990       .  S
Zr295       O298   2.436       .  S
Zr295       O299   2.441       .  S
Zr295       O300   2.425       .  S
O296        C301   1.285       .  A
O297        H314   0.990       .  S
O297        H329   0.990       .  S
O298        H315   0.990       .  S
O299        H319   0.990       .  S
O299        H328   0.990       .  S
O300        C301   1.280       .  A
C301       C1123   1.438       .  S
O302        H321   0.990       .  S
O302        H325   0.990       .  S
O303        H317   0.990       .  S
O303        H324   0.990       .  S
O304        C308   1.272       .  A
O305        C308   1.284       .  A
O306        H316   0.990       .  S
O307        H320   0.990       .  S
C308       C1109   1.404       .  S
Zr331       O332   2.437       .  S
Zr331       O333   2.448       .  S
Zr331       O334   2.451       .  S
Zr331       O337   2.509       .  S
Zr331       O339   2.388       .  S
Zr331       O340   2.398       .  S
Zr331       O341   2.429       .  S
Zr331       O342   2.411       .  S
O332        H388   0.990       .  S
O332        H396   0.990       .  S
O333        C353   1.286       .  A
O334        C355   1.290       .  A
O335       Zr345   2.395       .  S
O335        C354   1.269       .  A
O336       Zr344   2.442       .  S
O336        C355   1.287       .  A
O337        C354   1.295       .  A
O338       Zr346   2.470       .  S
O338        C353   1.289       .  A
O339       Zr344   2.394       .  S
O339       Zr346   2.355       .  S
O340       Zr345   2.408       .  S
O340       Zr346   2.353       .  S
O340        H375   0.964       .  S
O341       Zr344   2.425       .  S
O341       Zr361   2.364       .  S
O341        H378   0.964       .  S
O342       Zr345   2.411       .  S
O342       Zr361   2.403       .  S
Zr343       O368   2.441       .  S
Zr343       O362   2.443       .  S
Zr343       O370   2.370       .  S
Zr343       O358   2.403       .  S
Zr343       O349   2.415       .  S
Zr343       O350   2.403       .  S
Zr343       O351   2.371       .  S
Zr343       O352   2.372       .  S
Zr344       O363   2.434       .  S
Zr344       O356   2.433       .  S
Zr344       O357   2.496       .  S
Zr344       O350   2.403       .  S
Zr344       O351   2.381       .  S
Zr345       O347   2.438       .  S
Zr345       O369   2.440       .  S
Zr345       O371   2.447       .  S
Zr345       O349   2.380       .  S
Zr345       O352   2.381       .  S
Zr346       O372   2.439       .  S
Zr346       O373   2.435       .  S
Zr346       O348   2.437       .  S
Zr346       O349   2.433       .  S
Zr346       O350   2.375       .  S
O347        H384   0.990       .  S
O348        H379   0.990       .  S
O348        H393   0.990       .  S
O350        H376   0.962       .  S
O351       Zr361   2.390       .  S
O352       Zr361   2.350       .  S
O352        H377   0.964       .  S
C353       C1105   1.456       .  S
C354       C1114   1.460       .  S
C355       C1103   1.434       .  S
O356        H392   0.990       .  S
O357        C359   1.294       .  A
O358        C359   1.273       .  A
C359       C1140   1.450       .  S
O360       Zr361   2.439       .  S
O360        H389   0.990       .  S
Zr361       O364   2.437       .  S
Zr361       O365   2.439       .  S
Zr361       O366   2.430       .  S
O362        C367   1.285       .  A
O363        H380   0.990       .  S
O363        H395   0.990       .  S
O364        H381   0.990       .  S
O365        H385   0.990       .  S
O365        H394   0.990       .  S
O366        C367   1.282       .  A
C367       C1116   1.441       .  S
O368        H387   0.990       .  S
O368        H391   0.990       .  S
O369        H383   0.990       .  S
O369        H390   0.990       .  S
O370        C374   1.271       .  A
O371        C374   1.285       .  A
O372        H382   0.990       .  S
O373        H386   0.990       .  S
C374       C1148   1.405       .  S
Zr397       O398   2.437       .  S
Zr397       O399   2.447   1_655  S
Zr397       O400   2.449       .  S
Zr397       O403   2.508       .  S
Zr397       O405   2.389   1_655  S
Zr397       O406   2.399       .  S
Zr397       O407   2.427       .  S
Zr397       O408   2.411       .  S
O398        H454   0.990       .  S
O398        H462   0.990       .  S
O399        C419   1.285       .  A
O400        C421   1.289       .  A
O401       Zr411   2.394       .  S
O401        C420   1.268       .  A
O402       Zr410   2.440       .  S
O402        C421   1.287       .  A
O403        C420   1.294       .  A
O404       Zr412   2.476       .  S
O404        C419   1.290       .  A
O405       Zr410   2.392   1_455  S
O405       Zr412   2.352       .  S
O406       Zr411   2.409       .  S
O406       Zr412   2.357   1_655  S
O406        H441   0.964       .  S
O407       Zr410   2.425       .  S
O407       Zr427   2.360       .  S
O407        H444   0.964       .  S
O408       Zr411   2.410       .  S
O408       Zr427   2.405       .  S
Zr409       O434   2.442       .  S
Zr409       O428   2.445       .  S
Zr409       O436   2.377       .  S
Zr409       O424   2.404       .  S
Zr409       O415   2.415       .  S
Zr409       O416   2.404       .  S
Zr409       O417   2.371       .  S
Zr409       O418   2.370       .  S
Zr410       O429   2.434       .  S
Zr410       O422   2.433   1_655  S
Zr410       O423   2.493       .  S
Zr410       O416   2.403       .  S
Zr410       O417   2.384       .  S
Zr411       O413   2.438       .  S
Zr411       O435   2.439       .  S
Zr411       O437   2.436       .  S
Zr411       O415   2.382       .  S
Zr411       O418   2.380       .  S
Zr412       O438   2.439       .  S
Zr412       O439   2.435       .  S
Zr412       O414   2.438       .  S
Zr412       O415   2.435   1_455  S
Zr412       O416   2.374   1_455  S
O413        H450   0.990       .  S
O414        H445   0.991       .  S
O414        H459   0.990       .  S
O416        H442   0.963   1_655  S
O417       Zr427   2.390       .  S
O418       Zr427   2.350       .  S
O418        H443   0.964       .  S
C419       C1111   1.457       .  S
C420       C1102   1.460       .  S
C421       C1100   1.432       .  S
O422        H458   0.990       .  S
O423        C425   1.293       .  A
O424        C425   1.273       .  A
C425       C1130   1.448       .  S
O426       Zr427   2.439       .  S
O426        H455   0.990       .  S
Zr427       O430   2.436       .  S
Zr427       O431   2.439       .  S
Zr427       O432   2.423       .  S
O428        C433   1.286       .  A
O429        H446   0.990       .  S
O429        H461   0.990       .  S
O430        H447   0.990       .  S
O431        H451   0.990       .  S
O431        H460   0.990       .  S
O432        C433   1.280       .  A
C433       C1142   1.439       .  S
O434        H453   0.990       .  S
O434        H457   0.990       .  S
O435        H449   0.990       .  S
O435        H456   0.990       .  S
O436        C440   1.272       .  A
O437        C440   1.283       .  A
O438        H448   0.990       .  S
O439        H452   0.991       .  S
C440       C1122   1.404       .  S
Zr463       O464   2.435   1_455  S
Zr463       O465   2.439   1_455  S
Zr463       O466   2.454   1_455  S
Zr463       O469   2.509   1_455  S
Zr463       O471   2.388       .  S
Zr463       O472   2.399       .  S
Zr463       O473   2.425       .  S
Zr463       O474   2.409       .  S
O464        H520   0.990       .  S
O464        H528   0.990       .  S
O465        C485   1.284   1_655  A
O466        C487   1.291   1_655  A
O467       Zr477   2.396   1_655  S
O467        C486   1.269       .  A
O468       Zr476   2.442       .  S
O468        C487   1.287       .  A
O469        C486   1.295       .  A
O470       Zr478   2.476       .  S
O470        C485   1.291       .  A
O471       Zr476   2.390       .  S
O471       Zr478   2.351       .  S
O472       Zr477   2.405       .  S
O472       Zr478   2.353       .  S
O472        H507   0.964       .  S
O473       Zr476   2.427       .  S
O473       Zr493   2.361       .  S
O473        H510   0.964       .  S
O474       Zr477   2.411       .  S
O474       Zr493   2.405       .  S
Zr475       O500   2.441       .  S
Zr475       O494   2.446       .  S
Zr475       O502   2.374       .  S
Zr475       O490   2.407       .  S
Zr475       O481   2.416       .  S
Zr475       O482   2.403       .  S
Zr475       O483   2.371       .  S
Zr475       O484   2.371       .  S
Zr476       O495   2.434       .  S
Zr476       O488   2.434       .  S
Zr476       O489   2.495       .  S
Zr476       O482   2.402       .  S
Zr476       O483   2.387       .  S
Zr477       O479   2.439       .  S
Zr477       O501   2.440       .  S
Zr477       O503   2.438       .  S
Zr477       O481   2.379       .  S
Zr477       O484   2.384       .  S
Zr478       O504   2.439       .  S
Zr478       O505   2.435       .  S
Zr478       O480   2.438       .  S
Zr478       O481   2.434       .  S
Zr478       O482   2.374       .  S
O479        H516   0.990       .  S
O480        H511   0.990       .  S
O480        H525   0.990       .  S
O482        H508   0.962       .  S
O483       Zr493   2.392       .  S
O484       Zr493   2.353       .  S
O484        H509   0.963       .  S
C485       C1119   1.454   1_455  S
C486       C1101   1.460       .  S
C487       C1098   1.436   1_455  S
O488        H524   0.990       .  S
O489        C491   1.294       .  A
O490        C491   1.273       .  A
C491       C1106   1.451       .  S
O492       Zr493   2.439       .  S
O492        H521   0.990       .  S
Zr493       O496   2.437       .  S
Zr493       O497   2.439       .  S
Zr493       O498   2.425       .  S
O494        C499   1.286       .  A
O495        H512   0.990       .  S
O495        H527   0.990       .  S
O496        H513   0.990       .  S
O497        H517   0.990       .  S
O497        H526   0.990       .  S
O498        C499   1.281       .  A
C499       C1131   1.441       .  S
O500        H519   0.990       .  S
O500        H523   0.990       .  S
O501        H515   0.990       .  S
O501        H522   0.990       .  S
O502        C506   1.272       .  A
O503        C506   1.284       .  A
O504        H514   0.990       .  S
O505        H518   0.990       .  S
C506       C1110   1.405       .  S
Zr529       O530   2.435       .  S
Zr529       O531   2.439       .  S
Zr529       O532   2.505       .  S
Zr529       O535   2.445       .  S
Zr529       O537   2.370       .  S
Zr529       O538   2.402       .  S
Zr529       O539   2.412       .  S
Zr529       O540   2.403       .  S
O530        H586   0.990       .  S
O530        H594   0.990       .  S
O531        C551   1.285       .  A
O532        C553   1.295       .  A
O533       Zr543   2.443       .  S
O533        C552   1.287       .  A
O534       Zr542   2.386       .  S
O534        C553   1.265       .  A
O535        C552   1.289       .  A
O536       Zr544   2.467       .  S
O536        C551   1.290       .  A
O537       Zr542   2.406       .  S
O537       Zr544   2.356       .  S
O538       Zr543   2.374       .  S
O538       Zr544   2.383       .  S
O538        H573   0.963       .  S
O539       Zr542   2.407       .  S
O539       Zr559   2.400       .  S
O539        H576   0.967       .  S
O540       Zr543   2.397       .  S
O540       Zr559   2.364       .  S
Zr541       O566   2.446       .  S
Zr541       O560   2.410       .  S
Zr541       O568   2.396       .  S
Zr541       O556   2.391       .  S
Zr541       O547   2.392       .  S
Zr541       O548   2.404       .  S
Zr541       O549   2.364       .  S
Zr541       O550   2.381       .  S
Zr542       O561   2.438       .  S
Zr542       O554   2.436       .  S
Zr542       O555   2.435       .  S
Zr542       O548   2.389       .  S
Zr542       O549   2.364       .  S
Zr543       O545   2.437       .  S
Zr543       O567   2.438       .  S
Zr543       O569   2.480       .  S
Zr543       O547   2.371       .  S
Zr543       O550   2.375       .  S
Zr544       O570   2.435       .  S
Zr544       O571   2.436       .  S
Zr544       O546   2.439       .  S
Zr544       O547   2.382       .  S
Zr544       O548   2.435       .  S
O545        H582   0.990       .  S
O546        H577   0.990       .  S
O546        H591   0.990       .  S
O548        H574   0.965       .  S
O549       Zr559   2.367       .  S
O550       Zr559   2.390       .  S
O550        H575   0.966       .  S
C551       C1089   1.443       .  S
C552       C1104   1.434       .  S
C553       C1096   1.445       .  S
O554        H590   0.990       .  S
O555        C557   1.283       .  A
O556        C557   1.274       .  A
C557       C1094   1.420       .  S
O558       Zr559   2.439       .  S
O558        H587   0.990       .  S
Zr559       O562   2.436       .  S
Zr559       O563   2.439       .  S
Zr559       O564   2.408       .  S
O560        C565   1.280       .  A
O561        H578   0.990       .  S
O561        H593   0.990       .  S
O562        H579   0.990       .  S
O563        H583   0.990       .  S
O563        H592   0.990       .  S
O564        C565   1.278       .  A
C565       C1087   1.413       .  S
O566        H585   0.989       .  S
O566        H589   0.990       .  S
O567        H581   0.990       .  S
O567        H588   0.990       .  S
O568        C572   1.270       .  A
O569        C572   1.290       .  A
O570        H580   0.990       .  S
O571        H584   0.990       .  S
C572       C1092   1.438       .  S
Zr595       O596   2.435       .  S
Zr595       O597   2.437       .  S
Zr595       O598   2.508       .  S
Zr595       O601   2.443       .  S
Zr595       O603   2.369       .  S
Zr595       O604   2.401       .  S
Zr595       O605   2.412       .  S
Zr595       O606   2.403       .  S
O596        H652   0.990       .  S
O596        H660   0.990       .  S
O597        C617   1.284       .  A
O598        C619   1.296       .  A
O599       Zr609   2.442       .  S
O599        C618   1.286       .  A
O600       Zr608   2.384       .  S
O600        C619   1.266       .  A
O601        C618   1.289       .  A
O602       Zr610   2.469       .  S
O602        C617   1.290       .  A
O603       Zr608   2.404       .  S
O603       Zr610   2.357       .  S
O604       Zr609   2.375       .  S
O604       Zr610   2.381       .  S
O604        H639   0.963       .  S
O605       Zr608   2.407       .  S
O605       Zr625   2.399       .  S
O605        H642   0.967       .  S
O606       Zr609   2.398       .  S
O606       Zr625   2.366       .  S
Zr607       O632   2.445       .  S
Zr607       O626   2.412       .  S
Zr607       O634   2.397       .  S
Zr607       O622   2.385       .  S
Zr607       O613   2.391       .  S
Zr607       O614   2.405       .  S
Zr607       O615   2.363       .  S
Zr607       O616   2.379       .  S
Zr608       O627   2.438       .  S
Zr608       O620   2.436       .  S
Zr608       O621   2.436       .  S
Zr608       O614   2.387       .  S
Zr608       O615   2.363       .  S
Zr609       O611   2.437       .  S
Zr609       O633   2.438       .  S
Zr609       O635   2.484       .  S
Zr609       O613   2.370       .  S
Zr609       O616   2.375       .  S
Zr610       O636   2.435       .  S
Zr610       O637   2.436       .  S
Zr610       O612   2.439       .  S
Zr610       O613   2.382       .  S
Zr610       O614   2.435       .  S
O611        H648   0.990       .  S
O612        H643   0.990       .  S
O612        H657   0.990       .  S
O614        H640   0.965       .  S
O615       Zr625   2.365       .  S
O616       Zr625   2.392       .  S
O616        H641   0.966       .  S
C617       C1086   1.443       .  S
C618       C1107   1.434       .  S
C619       C1095   1.445       .  S
O620        H656   0.990       .  S
O621        C623   1.284       .  A
O622        C623   1.273       .  A
C623       C1084   1.417       .  S
O624       Zr625   2.439       .  S
O624        H653   0.990       .  S
Zr625       O628   2.437       .  S
Zr625       O629   2.438       .  S
Zr625       O630   2.410       .  S
O626        C631   1.280       .  A
O627        H644   0.990       .  S
O627        H659   0.990       .  S
O628        H645   0.990       .  S
O629        H649   0.990       .  S
O629        H658   0.990       .  S
O630        C631   1.279       .  A
C631       C1079   1.415       .  S
O632        H651   0.989       .  S
O632        H655   0.990       .  S
O633        H647   0.990       .  S
O633        H654   0.990       .  S
O634        C638   1.270       .  A
O635        C638   1.290       .  A
O636        H646   0.990       .  S
O637        H650   0.990       .  S
C638       C1082   1.439       .  S
Zr661       O662   2.435       .  S
Zr661       O663   2.434   1_545  S
Zr661       O664   2.510       .  S
Zr661       O667   2.445       .  S
Zr661       O669   2.370       .  S
Zr661       O670   2.403   1_545  S
Zr661       O671   2.409       .  S
Zr661       O672   2.403       .  S
O662        H718   0.990       .  S
O662        H726   0.990       .  S
O663        C683   1.284       .  A
O664        C685   1.296       .  A
O665       Zr675   2.447       .  S
O665        C684   1.288       .  A
O666       Zr674   2.381       .  S
O666        C685   1.264       .  A
O667        C684   1.289       .  A
O668       Zr676   2.468       .  S
O668        C683   1.290       .  A
O669       Zr674   2.406       .  S
O669       Zr676   2.358   1_545  S
O670       Zr675   2.376   1_565  S
O670       Zr676   2.382       .  S
O670        H705   0.962       .  S
O671       Zr674   2.406       .  S
O671       Zr691   2.400       .  S
O671        H708   0.967       .  S
O672       Zr675   2.398       .  S
O672       Zr691   2.365       .  S
Zr673       O698   2.445       .  S
Zr673       O692   2.412       .  S
Zr673       O700   2.395       .  S
Zr673       O688   2.388       .  S
Zr673       O679   2.392       .  S
Zr673       O680   2.403       .  S
Zr673       O681   2.362       .  S
Zr673       O682   2.379       .  S
Zr674       O693   2.437       .  S
Zr674       O686   2.436       .  S
Zr674       O687   2.431       .  S
Zr674       O680   2.389       .  S
Zr674       O681   2.362       .  S
Zr675       O677   2.437       .  S
Zr675       O699   2.438   1_545  S
Zr675       O701   2.488       .  S
Zr675       O679   2.370       .  S
Zr675       O682   2.377       .  S
Zr676       O702   2.436       .  S
Zr676       O703   2.437       .  S
Zr676       O678   2.438       .  S
Zr676       O679   2.382   1_565  S
Zr676       O680   2.434   1_565  S
O677        H714   0.990       .  S
O678        H709   0.990       .  S
O678        H723   0.990       .  S
O680        H706   0.965       .  S
O681       Zr691   2.366       .  S
O682       Zr691   2.390       .  S
O682        H707   0.966       .  S
C683       C1091   1.441       .  S
C684       C1134   1.436       .  S
C685       C1077   1.446       .  S
O686        H722   0.990       .  S
O687        C689   1.283       .  A
O688        C689   1.273       .  A
C689       C1075   1.417       .  S
O690       Zr691   2.440       .  S
O690        H719   0.990       .  S
Zr691       O694   2.437       .  S
Zr691       O695   2.438       .  S
Zr691       O696   2.411       .  S
O692        C697   1.280       .  A
O693        H710   0.990       .  S
O693        H725   0.990       .  S
O694        H711   0.990       .  S
O695        H715   0.990       .  S
O695        H724   0.990       .  S
O696        C697   1.279       .  A
C697       C1072   1.417       .  S
O698        H717   0.990       .  S
O698        H721   0.990       .  S
O699        H713   0.990       .  S
O699        H720   0.990       .  S
O700        C704   1.270       .  A
O701        C704   1.291       .  A
O702        H712   0.990       .  S
O703        H716   0.990       .  S
C704       C1074   1.443       .  S
Zr727       O728   2.435   1_565  S
Zr727       O729   2.435       .  S
Zr727       O730   2.508   1_565  S
Zr727       O733   2.445       .  S
Zr727       O735   2.373       .  S
Zr727       O736   2.403       .  S
Zr727       O737   2.412       .  S
Zr727       O738   2.405       .  S
O728        H784   0.990       .  S
O728        H792   0.990       .  S
O729        C749   1.284       .  A
O730        C751   1.296       .  A
O731       Zr741   2.454       .  S
O731        C750   1.289       .  A
O732       Zr740   2.384       .  S
O732        C751   1.265   1_565  A
O733        C750   1.289       .  A
O734       Zr742   2.473       .  S
O734        C749   1.291       .  A
O735       Zr740   2.409       .  S
O735       Zr742   2.358       .  S
O736       Zr741   2.370       .  S
O736       Zr742   2.378       .  S
O736        H771   0.962       .  S
O737       Zr740   2.407       .  S
O737       Zr757   2.399       .  S
O737        H774   0.967       .  S
O738       Zr741   2.395       .  S
O738       Zr757   2.366       .  S
Zr739       O764   2.447       .  S
Zr739       O758   2.424       .  S
Zr739       O766   2.394       .  S
Zr739       O754   2.396       .  S
Zr739       O746   2.403       .  S
Zr739       O747   2.365       .  S
Zr739       O748   2.377       .  S
Zr739       O745   2.298       .  S
Zr740       O759   2.439       .  S
Zr740       O752   2.435       .  S
Zr740       O753   2.436       .  S
Zr740       O746   2.389       .  S
Zr740       O747   2.367       .  S
Zr741       O743   2.442       .  S
Zr741       O765   2.443       .  S
Zr741       O767   2.479       .  S
Zr741       O748   2.375       .  S
Zr741       O745   2.276       .  S
Zr742       O768   2.434       .  S
Zr742       O769   2.437       .  S
Zr742       O744   2.449       .  S
Zr742       O746   2.431       .  S
Zr742       O745   2.302       .  S
O743        H780   0.990       .  S
O744        H775   0.991       .  S
O744        H789   0.990       .  S
O746        H772   0.965       .  S
O747       Zr757   2.370       .  S
O748       Zr757   2.395       .  S
O748        H773   0.965       .  S
C749       C1069   1.442       .  S
C750       C1144   1.438   1_565  S
C751       C1078   1.446       .  S
O752        H788   0.990       .  S
O753        C755   1.283       .  A
O754        C755   1.274       .  A
C755       C1093   1.421       .  S
O756       Zr757   2.440       .  S
O756        H785   0.990       .  S
Zr757       O760   2.437       .  S
Zr757       O761   2.439       .  S
Zr757       O762   2.406       .  S
O758        C763   1.282       .  A
O759        H776   0.990       .  S
O759        H791   0.990       .  S
O760        H777   0.990       .  S
O761        H781   0.990       .  S
O761        H790   0.990       .  S
O762        C763   1.278       .  A
C763       C1068   1.417       .  S
O764        H783   0.989       .  S
O764        H787   0.990       .  S
O765        H779   0.991       .  S
O765        H786   0.990       .  S
O766        C770   1.270       .  A
O767        C770   1.289       .  A
O768        H778   0.991       .  S
O769        H782   0.990       .  S
C770       C1085   1.440       .  S
Zr793       O794   2.435   1_655  S
Zr793       O795   2.437       .  S
Zr793       O796   2.504       .  S
Zr793       O799   2.438       .  S
Zr793       O801   2.371       .  S
Zr793       O802   2.402       .  S
Zr793       O803   2.415   1_655  S
Zr793       O804   2.404   1_655  S
O794        H850   0.990   1_455  S
O794        H858   0.990       .  S
O795        C815   1.284       .  A
O796        C817   1.294   1_655  A
O797       Zr807   2.444       .  S
O797        C816   1.287       .  A
O798       Zr806   2.386       .  S
O798        C817   1.264       .  A
O799        C816   1.288       .  A
O800       Zr808   2.466       .  S
O800        C815   1.289       .  A
O801       Zr806   2.406   1_655  S
O801       Zr808   2.358       .  S
O802       Zr807   2.372       .  S
O802       Zr808   2.382       .  S
O802        H837   0.962       .  S
O803       Zr806   2.410       .  S
O803       Zr823   2.401       .  S
O803        H840   0.968       .  S
O804       Zr807   2.396   1_455  S
O804       Zr823   2.365       .  S
Zr805       O830   2.445       .  S
Zr805       O824   2.411       .  S
Zr805       O832   2.395       .  S
Zr805       O820   2.388       .  S
Zr805       O811   2.394   1_455  S
Zr805       O812   2.403       .  S
Zr805       O813   2.366       .  S
Zr805       O814   2.378       .  S
Zr806       O825   2.440       .  S
Zr806       O818   2.435       .  S
Zr806       O819   2.436       .  S
Zr806       O812   2.387       .  S
Zr806       O813   2.367       .  S
Zr807       O809   2.437   1_655  S
Zr807       O831   2.438       .  S
Zr807       O833   2.480       .  S
Zr807       O811   2.373       .  S
Zr807       O814   2.376   1_655  S
Zr808       O834   2.436       .  S
Zr808       O835   2.435       .  S
Zr808       O810   2.438       .  S
Zr808       O811   2.384       .  S
Zr808       O812   2.433   1_655  S
O809        H846   0.990       .  S
O810        H841   0.990       .  S
O810        H855   0.990       .  S
O812        H838   0.965       .  S
O813       Zr823   2.367       .  S
O814       Zr823   2.389       .  S
O814        H839   0.966       .  S
C815       C1081   1.442       .  S
C816       C1099   1.433       .  S
C817       C1066   1.446       .  S
O818        H854   0.990       .  S
O819        C821   1.284       .  A
O820        C821   1.273       .  A
C821       C1063   1.420       .  S
O822       Zr823   2.438       .  S
O822        H851   0.990       .  S
Zr823       O826   2.437       .  S
Zr823       O827   2.439       .  S
Zr823       O828   2.410       .  S
O824        C829   1.279       .  A
O825        H842   0.990       .  S
O825        H857   0.990       .  S
O826        H843   0.990       .  S
O827        H847   0.990       .  S
O827        H856   0.990       .  S
O828        C829   1.278       .  A
C829       C1067   1.415       .  S
O830        H849   0.989   1_455  S
O830        H853   0.990       .  S
O831        H845   0.990       .  S
O831        H852   0.990       .  S
O832        C836   1.269   1_455  A
O833        C836   1.289       .  A
O834        H844   0.990       .  S
O835        H848   0.990       .  S
C836       C1062   1.438       .  S
Zr859       O860   2.434   1_655  S
Zr859       O861   2.435       .  S
Zr859       O862   2.507       .  S
Zr859       O865   2.445       .  S
Zr859       O867   2.370       .  S
Zr859       O868   2.403       .  S
Zr859       O869   2.414       .  S
Zr859       O870   2.402       .  S
O860        H916   0.990       .  S
O860        H924   0.990       .  S
O861        C881   1.284       .  A
O862        C883   1.295       .  A
O863       Zr873   2.447       .  S
O863        C882   1.287       .  A
O864       Zr872   2.383       .  S
O864        C883   1.264       .  A
O865        C882   1.289       .  A
O866       Zr874   2.466       .  S
O866        C881   1.289       .  A
O867       Zr872   2.405       .  S
O867       Zr874   2.357       .  S
O868       Zr873   2.376       .  S
O868       Zr874   2.384       .  S
O868        H903   0.963       .  S
O869       Zr872   2.406       .  S
O869       Zr889   2.401       .  S
O869        H906   0.967       .  S
O870       Zr873   2.395       .  S
O870       Zr889   2.366       .  S
Zr871       O896   2.444       .  S
Zr871       O890   2.412       .  S
Zr871       O898   2.397       .  S
Zr871       O886   2.385       .  S
Zr871       O877   2.390       .  S
Zr871       O878   2.404       .  S
Zr871       O879   2.365       .  S
Zr871       O880   2.379       .  S
Zr872       O891   2.439       .  S
Zr872       O884   2.436       .  S
Zr872       O885   2.434       .  S
Zr872       O878   2.390       .  S
Zr872       O879   2.362       .  S
Zr873       O875   2.437       .  S
Zr873       O897   2.438       .  S
Zr873       O899   2.484       .  S
Zr873       O877   2.372       .  S
Zr873       O880   2.377       .  S
Zr874       O900   2.436       .  S
Zr874       O901   2.436       .  S
Zr874       O876   2.439       .  S
Zr874       O877   2.382       .  S
Zr874       O878   2.435       .  S
O875        H912   0.990       .  S
O876        H907   0.990       .  S
O876        H921   0.990       .  S
O878        H904   0.965       .  S
O879       Zr889   2.366       .  S
O880       Zr889   2.391       .  S
O880        H905   0.966       .  S
C881       C1059   1.441       .  S
C882       C1097   1.436       .  S
C883       C1065   1.445       .  S
O884        H920   0.990       .  S
O885        C887   1.283       .  A
O886        C887   1.273       .  A
C887       C1083   1.417       .  S
O888       Zr889   2.440       .  S
O888        H917   0.990       .  S
Zr889       O892   2.437       .  S
Zr889       O893   2.438       .  S
Zr889       O894   2.411       .  S
O890        C895   1.280       .  A
O891        H908   0.990       .  S
O891        H923   0.990       .  S
O892        H909   0.990       .  S
O893        H913   0.990       .  S
O893        H922   0.990       .  S
O894        C895   1.279       .  A
C895       C1071   1.416       .  S
O896        H915   0.989       .  S
O896        H919   0.990       .  S
O897        H911   0.990       .  S
O897        H918   0.990       .  S
O898        C902   1.270       .  A
O899        C902   1.291       .  A
O900        H910   0.990       .  S
O901        H914   0.990       .  S
C902       C1090   1.440       .  S
Zr925       O926   2.434   1_665  S
Zr925       O927   2.442       .  S
Zr925       O928   2.507   1_565  S
Zr925       O931   2.445   1_565  S
Zr925       O933   2.368       .  S
Zr925       O934   2.399       .  S
Zr925       O935   2.418   1_655  S
Zr925       O936   2.403   1_655  S
O926        H982   0.990   1_455  S
O926        H990   0.990       .  S
O927        C947   1.285       .  A
O928        C949   1.296   1_655  A
O929       Zr939   2.448       .  S
O929        C948   1.288       .  A
O930       Zr938   2.386       .  S
O930        C949   1.266   1_565  A
O931        C948   1.289   1_545  A
O932       Zr940   2.471       .  S
O932        C947   1.290       .  A
O933       Zr938   2.408   1_655  S
O933       Zr940   2.354       .  S
O934       Zr939   2.372       .  S
O934       Zr940   2.382       .  S
O934        H969   0.962       .  S
O935       Zr938   2.407       .  S
O935       Zr955   2.404       .  S
O935        H972   0.965       .  S
O936       Zr939   2.394   1_455  S
O936       Zr955   2.366       .  S
Zr937       O962   2.446       .  S
Zr937       O956   2.412       .  S
Zr937       O964   2.399       .  S
Zr937       O952   2.390       .  S
Zr937       O943   2.391   1_455  S
Zr937       O944   2.404       .  S
Zr937       O945   2.368       .  S
Zr937       O946   2.380       .  S
Zr938       O957   2.438       .  S
Zr938       O950   2.435       .  S
Zr938       O951   2.438       .  S
Zr938       O944   2.388       .  S
Zr938       O945   2.363       .  S
Zr939       O941   2.437   1_655  S
Zr939       O963   2.438       .  S
Zr939       O965   2.480       .  S
Zr939       O943   2.374       .  S
Zr939       O946   2.375   1_655  S
Zr940       O966   2.435       .  S
Zr940       O967   2.436       .  S
Zr940       O942   2.439       .  S
Zr940       O943   2.383       .  S
Zr940       O944   2.435   1_655  S
O941        H978   0.990       .  S
O942        H973   0.990       .  S
O942        H987   0.990       .  S
O944        H970   0.965       .  S
O945       Zr955   2.369       .  S
O946       Zr955   2.391       .  S
O946        H971   0.966       .  S
C947       C1073   1.445       .  S
C948       C1117   1.437   1_565  S
C949       C1057   1.446       .  S
O950        H986   0.990       .  S
O951        C953   1.284       .  A
O952        C953   1.274       .  A
C953       C1064   1.420       .  S
O954       Zr955   2.439       .  S
O954        H983   0.990       .  S
Zr955       O958   2.437       .  S
Zr955       O959   2.439       .  S
Zr955       O960   2.409       .  S
O956        C961   1.280       .  A
O957        H974   0.990       .  S
O957        H989   0.990       .  S
O958        H975   0.990       .  S
O959        H979   0.990       .  S
O959        H988   0.990       .  S
O960        C961   1.278       .  A
C961       C1088   1.414       .  S
O962        H981   0.989   1_455  S
O962        H985   0.990       .  S
O963        H977   0.990       .  S
O963        H984   0.990       .  S
O964        C968   1.271   1_455  A
O965        C968   1.290       .  A
O966        H976   0.990       .  S
O967        H980   0.990       .  S
C968       C1060   1.439       .  S
Zr991       O992   2.435   1_655  S
Zr991       O993   2.435   1_545  S
Zr991       O994   2.507       .  S
Zr991       O997   2.441       .  S
Zr991       O999   2.370       .  S
Zr991      O1000   2.403   1_545  S
Zr991      O1001   2.412       .  S
Zr991      O1002   2.406       .  S
O992       H1048   0.990       .  S
O992       H1056   0.990       .  S
O993       C1013   1.284       .  A
O994       C1015   1.295       .  A
O995      Zr1005   2.453       .  S
O995       C1014   1.289       .  A
O996      Zr1004   2.385       .  S
O996       C1015   1.265       .  A
O997       C1014   1.288       .  A
O998      Zr1006   2.473       .  S
O998       C1013   1.291       .  A
O999      Zr1004   2.406       .  S
O999      Zr1006   2.359   1_545  S
O1000     Zr1005   2.367   1_565  S
O1000     Zr1006   2.379       .  S
O1000      H1035   0.962       .  S
O1001     Zr1004   2.405       .  S
O1001     Zr1021   2.403       .  S
O1001      H1038   0.967       .  S
O1002     Zr1005   2.395       .  S
O1002     Zr1021   2.366       .  S
Zr1003     O1028   2.448       .  S
Zr1003     O1022   2.419       .  S
Zr1003     O1030   2.393       .  S
Zr1003     O1018   2.395       .  S
Zr1003     O1010   2.403       .  S
Zr1003     O1011   2.364       .  S
Zr1003     O1012   2.377       .  S
Zr1003     O1009   2.299       .  S
Zr1004     O1023   2.438       .  S
Zr1004     O1016   2.436       .  S
Zr1004     O1017   2.429       .  S
Zr1004     O1010   2.392       .  S
Zr1004     O1011   2.368       .  S
Zr1005     O1007   2.443       .  S
Zr1005     O1029   2.443   1_545  S
Zr1005     O1031   2.475       .  S
Zr1005     O1012   2.375       .  S
Zr1005     O1009   2.278       .  S
Zr1006     O1032   2.435       .  S
Zr1006     O1033   2.437       .  S
Zr1006     O1008   2.449       .  S
Zr1006     O1010   2.433   1_565  S
Zr1006     O1009   2.303   1_565  S
O1007      H1044   0.990       .  S
O1008      H1039   0.991       .  S
O1008      H1053   0.990       .  S
O1010      H1036   0.965       .  S
O1011     Zr1021   2.369       .  S
O1012     Zr1021   2.393       .  S
O1012      H1037   0.966       .  S
C1013      C1061   1.441       .  S
C1014      C1126   1.436       .  S
C1015      C1058   1.446       .  S
O1016      H1052   0.990       .  S
O1017      C1019   1.282       .  A
O1018      C1019   1.274       .  A
C1019      C1076   1.418       .  S
O1020     Zr1021   2.439       .  S
O1020      H1049   0.990       .  S
Zr1021     O1024   2.438       .  S
Zr1021     O1025   2.439       .  S
Zr1021     O1026   2.408       .  S
O1022      C1027   1.281       .  A
O1023      H1040   0.990       .  S
O1023      H1055   0.990       .  S
O1024      H1041   0.990       .  S
O1025      H1045   0.990       .  S
O1025      H1054   0.990       .  S
O1026      C1027   1.278       .  A
C1027      C1080   1.417       .  S
O1028      H1047   0.989       .  S
O1028      H1051   0.990       .  S
O1029      H1043   0.990       .  S
O1029      H1050   0.990       .  S
O1030      C1034   1.269       .  A
O1031      C1034   1.287       .  A
O1032      H1042   0.991       .  S
O1033      H1046   0.990       .  S
C1034      C1070   1.437   1_545  S
C1057      C1058   1.215   1_455  T
C1059      C1060   1.210       .  T
C1061      C1062   1.210       .  T
C1063      C1064   1.197       .  T
C1065      C1066   1.214   1_655  T
C1067      C1068   1.195       .  T
C1069      C1070   1.210       .  T
C1071      C1072   1.195       .  T
C1073      C1074   1.212   1_565  T
C1075      C1076   1.195       .  T
C1077      C1078   1.214       .  T
C1079      C1080   1.195       .  T
C1081      C1082   1.210       .  T
C1083      C1084   1.195       .  T
C1085      C1086   1.211       .  T
C1087      C1088   1.193       .  T
C1089      C1090   1.211       .  T
C1091      C1092   1.210       .  T
C1093      C1094   1.197       .  T
C1095      C1096   1.214       .  T
C1097      C1098   1.207       .  T
C1099      C1100   1.205   1_554  T
C1101      C1102   1.222       .  T
C1103      C1104   1.206       .  T
C1105      C1106   1.218       .  T
C1107      C1108   1.206   1_554  T
C1109      C1110   1.187       .  T
C1111      C1112   1.218       .  T
C1113      C1114   1.222       .  T
C1115      C1116   1.210       .  T
C1117      C1118   1.207       .  T
C1119      C1120   1.217       .  T
C1121      C1122   1.186       .  T
C1123      C1124   1.208       .  T
C1125      C1126   1.206   1_556  T
C1127      C1128   1.222       .  T
C1129      C1130   1.216   1_455  T
C1131      C1132   1.209       .  T
C1133      C1134   1.207       .  T
C1135      C1136   1.217       .  T
C1137      C1138   1.187       .  T
C1139      C1140   1.218       .  T
C1141      C1142   1.209       .  T
C1143      C1144   1.207   1_556  T
C1145      C1146   1.217       .  T
C1147      C1148   1.187       .  T
C1149      C1150   1.217       .  T
C1151      C1152   1.223       .  T
