geometry optimzed in LAMMPS
_audit_creation_date              2020-12-01 
_audit_creation_method            'lammps2cif' 
_symmetry_space_group_name_H-M    'P1' 
_symmetry_Int_Tables_number       1 
_symmetry_cell_setting            triclinic 
loop_ 
_symmetry_equiv_pos_as_xyz 
  x,y,z 
_cell_length_a                    34.67540364 
_cell_length_b                    34.6772208507359 
_cell_length_c                    27.2601748757077 
_cell_angle_alpha                 89.99643451943585 
_cell_angle_beta                  90.00025507597928 
_cell_angle_gamma                 120.00485408037564 
loop_ 
_atom_site_label 
_atom_site_type_symbol 
_atom_site_fract_x 
_atom_site_fract_y 
_atom_site_fract_z 
_atom_site_charge 
O1          O  0.29036655  0.18699569  0.27693558    -0.80100
C2          C  0.38238706  0.19915522  0.44485077     0.99300
O3          O  0.36474968  0.17198639  0.40987636    -0.69200
O4          O  0.30751350  0.13163665  0.33740429    -0.72800
Al5        Al  0.36190464  0.18829688  0.34380355     1.49000
C6          C  0.26841941  0.11808911  0.35275359     0.94500
O7          O  0.26207245  0.21732098  0.40199834    -0.79000
O8          O  0.34152987  0.30102177  0.37487463    -0.72600
Al9        Al  0.28174535  0.20360671  0.34163444     1.90100
O10         O  0.32050844  0.24166468  0.44999320    -0.71600
O11         O  0.41577188  0.29593792  0.35961984    -0.71500
O12         O  0.39367056  0.23975189  0.44005141    -0.77100
O13         O  0.42280230  0.23744277  0.34586319    -0.75300
O14         O  0.33643902  0.21953839  0.36237162    -1.11500
O15         O  0.36008263  0.20164981  0.27621945    -0.70700
C16         C  0.32477807  0.19338955  0.25387218     1.00100
C17         C  0.27977005  0.22779019  0.44396647     0.96400
Al18       Al  0.36559698  0.26593836  0.40239283     1.55600
O19         O  0.25653094  0.14512185  0.36609411    -0.75300
C20         C  0.43958555  0.27927322  0.34793816     1.00600
C21         C  0.31654120  0.29515084  0.33848709     0.95500
O22         O  0.29925893  0.25954735  0.31461932    -0.80600
O23         O  0.20329764  0.27400887  0.73186425    -0.80100
C24         C  0.21548805  0.36606362  0.56397552     0.99300
O25         O  0.18831881  0.34842698  0.59895349    -0.69200
O26         O  0.14796341  0.29117549  0.67141609    -0.72800
Al27       Al  0.20462919  0.34556557  0.66501916     1.49000
C28         C  0.13441640  0.25209267  0.65603881     0.94500
O29         O  0.23366053  0.24574337  0.60680918    -0.79000
O30         O  0.31735518  0.32518482  0.63394349    -0.72600
Al31       Al  0.21992948  0.26540615  0.66716771     1.90100
O32         O  0.25799944  0.30417869  0.55881606    -0.71600
O33         O  0.31227460  0.39943081  0.64918823    -0.71500
O34         O  0.25608491  0.37733352  0.56876200    -0.77100
O35         O  0.25377484  0.40645562  0.66296009    -0.75300
O36         O  0.23586995  0.32010203  0.64643933    -1.11500
O37         O  0.21798804  0.34373199  0.73259705    -0.70700
C38         C  0.20971173  0.30841994  0.75493657     1.00100
C39         C  0.24412565  0.26344248  0.56484054     0.96400
Al40       Al  0.28227392  0.34925955  0.60641841     1.55600
O41         O  0.16145245  0.24020997  0.64268712    -0.75300
C42         C  0.29560634  0.42323943  0.66087690     1.00600
C43         C  0.31147525  0.30019157  0.67033218     0.95500
O44         O  0.27586529  0.28291131  0.69419665    -0.80600
O45         O  0.42014844  0.20773485  0.61028853    -0.80100
C46         C  0.34029465  0.11567501  0.77818137     0.99300
O47         O  0.33076124  0.13331584  0.74321112    -0.69200
O48         O  0.34765223  0.19056824  0.67075267    -0.72800
Al49       Al  0.34991985  0.13617689  0.67714181     1.49000
C50         C  0.37319884  0.22965480  0.68612013     0.94500
O51         O  0.47880166  0.23599682  0.73534298    -0.79000
O52         O  0.48303479  0.15656144  0.70819341    -0.72600
Al53       Al  0.44539454  0.21633842  0.67498299     1.90100
O54         O  0.44470022  0.17755653  0.78333184    -0.71600
O55         O  0.40370388  0.08232462  0.69293945    -0.71500
O56         O  0.36961414  0.10439955  0.77338032    -0.77100
O57         O  0.33816760  0.07528310  0.67919351    -0.75300
O58         O  0.40663212  0.16164270  0.69571166    -1.11500
O59         O  0.36509934  0.13801235  0.60956027    -0.70700
C60         C  0.39213676  0.17332497  0.58721884     1.00100
C61         C  0.47157782  0.21829172  0.77730917     0.96400
Al62       Al  0.42387977  0.13248283  0.73572121     1.55600
O63         O  0.41212108  0.24153756  0.69946979    -0.75300
C64         C  0.36322224  0.05850866  0.68126101     1.00600
C65         C  0.00214654  0.18155384  0.67180367     0.95500
O66         O  0.48381633  0.19883204  0.64794330    -0.80600
O67         O  0.09431758  0.29477889  0.06521128    -0.80100
C68         C  0.17417154  0.28259570  0.89731439     0.99300
O69         O  0.18370450  0.30977171  0.93228032    -0.69200
O70         O  0.16682294  0.35012976  0.00474198    -0.72800
Al71       Al  0.16455256  0.29347100  0.99835548     1.49000
C72         C  0.14127412  0.36366783  0.98938161     0.94500
O73         O  0.03567881  0.26440721  0.94015172    -0.79000
O74         O  0.03142820  0.18073148  0.96729661    -0.72600
Al75       Al  0.06907680  0.27814607  0.00051750     1.90100
O76         O  0.06978393  0.24007743  0.89216565    -0.71600
O77         O  0.11075977  0.18582841  0.98257228    -0.71500
O78         O  0.14486094  0.24199596  0.90212703    -0.77100
O79         O  0.17630093  0.24432806  0.99630505    -0.75300
O80         O  0.10783971  0.26221991  0.97978979    -1.11500
O81         O  0.14937791  0.28012657  0.06594231    -0.70700
C82         C  0.12233416  0.28839039  0.08828234     1.00100
C83         C  0.04291173  0.25393916  0.89818485     0.96400
Al84       Al  0.09059136  0.21581339  0.93978091     1.55600
O85         O  0.10234954  0.33662595  0.97603933    -0.75300
C86         C  0.15124380  0.20249680  0.99424285     1.00600
C87         C  0.01231658  0.18660660  0.00368652     0.95500
O88         O  0.03065360  0.22221010  0.02755351    -0.80600
O89         O  0.31117053  0.07794197  0.94362218    -0.80100
C90         C  0.29896612  0.15779207  0.11151265     0.99300
O91         O  0.32613948  0.16732931  0.07653890    -0.69200
O92         O  0.36650388  0.15043659  0.00408684    -0.72800
Al93       Al  0.30983798  0.14816028  0.01047083     1.49000
C94         C  0.38004494  0.12489313  0.01945709     0.94500
O95         O  0.28078647  0.01928646  0.06866475    -0.79000
O96         O  0.19710838  0.01504065  0.04153865    -0.72600
Al97       Al  0.29452879  0.05269558  0.00831364     1.90100
O98         O  0.25646120  0.05338425  0.11666488    -0.71600
O99         O  0.20219061  0.09436854  0.02629355    -0.71500
O100        O  0.25837175  0.12845543  0.10672407    -0.77100
O101        O  0.26069207  0.15989882  0.01251833    -0.75300
O102        O  0.27859369  0.09145088  0.02904665    -1.11500
O103        O  0.29648569  0.13297617  0.94289231    -0.70700
C104        C  0.30475581  0.10594015  0.92055134     1.00100
C105        C  0.27032631  0.02651703  0.11063459     0.96400
Al106      Al  0.23218786  0.07419548  0.06906461     1.55600
O107        O  0.35300384  0.08596953  0.03280215    -0.75300
C108        C  0.21886049  0.13484761  0.01460306     1.00600
C109        C  0.20298701  0.49593422  0.00514689     0.95500
O110        O  0.23859363  0.01427397  0.98127663    -0.80600
O111        O  0.22408020  0.40384898  0.39854981    -0.80100
C112        C  0.13205669  0.32397190  0.23064306     0.99300
O113        O  0.14969254  0.31444531  0.26562341    -0.69200
O114        O  0.20693100  0.33134130  0.33808811    -0.72800
Al115      Al  0.15253938  0.33360669  0.33169000     1.49000
C116        C  0.24602333  0.35689067  0.32273067     0.94500
O117        O  0.25237220  0.46247125  0.27348260    -0.79000
O118        O  0.17292955  0.46671148  0.30057690    -0.72600
Al119      Al  0.23269911  0.42908248  0.33384917     1.90100
O120        O  0.19394325  0.42835121  0.22548195    -0.71600
O121        O  0.09868250  0.38738640  0.31585172    -0.71500
O122        O  0.12077070  0.35328275  0.23543391    -0.77100
O123        O  0.09164359  0.32185740  0.32963017    -0.75300
O124        O  0.17800702  0.39031408  0.31311187    -1.11500
O125        O  0.15436270  0.34878530  0.39926933    -0.70700
C126        C  0.18966754  0.37583054  0.42161449     1.00100
C127        C  0.23467993  0.45522354  0.23151055     0.96400
Al128      Al  0.14885416  0.40755171  0.27307801     1.55600
O129        O  0.25791418  0.39581616  0.30939497    -0.75300
C130        C  0.07486608  0.34690858  0.32754805     1.00600
C131        C  0.19790586  0.48582798  0.33697337     0.95500
O132        O  0.21517873  0.46750448  0.36085591    -0.80600
C133        C  0.27021831  0.00148726  0.15237079    -0.11500
C134        C  0.25960069  0.48024564  0.18976812    -0.13100
C135        C  0.12456854  0.29332613  0.14074471    -0.11500
C136        C  0.12664942  0.30339864  0.18344791    -0.13100
C137        C  0.17241859  0.45005167  0.99479837    -0.11500
C138        C  0.15594612  0.41037404  0.98985035    -0.13100
C139        C  0.19047264  0.15396660  0.00674582    -0.11500
C140        C  0.17035582  0.17410306  0.00210036    -0.13100
C141        C  0.42675324  0.13956652  0.01899010    -0.11500
C142        C  0.46643261  0.15603752  0.01403834    -0.13100
C143        C  0.49662627  0.24319704  0.81904792    -0.11500
C144        C  0.01787774  0.25381574  0.85644075    -0.13100
C145        C  0.31972253  0.11025186  0.82537890    -0.11500
C146        C  0.30966602  0.10816508  0.86808830    -0.13100
C147        C  0.19473473  0.29774741  0.85010978    -0.11500
C148        C  0.20479252  0.30572413  0.80740053    -0.13100
C149        C  0.04802607  0.19686059  0.66144698    -0.11500
C150        C  0.08770670  0.22006199  0.65650033    -0.13100
C151        C  0.34411066  0.01100239  0.67339470    -0.11500
C152        C  0.32399504  0.47074795  0.66873942    -0.13100
C153        C  0.35852698  0.26168838  0.68564652    -0.11500
C154        C  0.34205024  0.28488818  0.68068887    -0.13100
C155        C  0.19235559  0.37359127  0.47407872    -0.11500
C156        C  0.20033027  0.37149265  0.51678284    -0.13100
C157        C  0.02735591  0.32779405  0.33541751    -0.11500
C158        C  0.48709779  0.30766678  0.34007506    -0.13100
C159        C  0.27805274  0.34221469  0.32319302    -0.11500
C160        C  0.30124676  0.32573107  0.32813759    -0.13100
C161        C  0.23638681  0.07138150  0.35227535    -0.11500
C162        C  0.21319589  0.03170297  0.34732057    -0.13100
C163        C  0.32208877  0.18846017  0.20140787    -0.11500
C164        C  0.31411628  0.17838358  0.15870406    -0.13100
C165        C  0.25485124  0.22790269  0.48570458    -0.11500
C166        C  0.24423237  0.23852671  0.52309965    -0.13100
C167        C  0.38780310  0.18399873  0.49204996    -0.11500
C168        C  0.38989708  0.17602268  0.53475617    -0.13100
O169        O  0.29036669  0.68699580  0.27693553    -0.80100
C170        C  0.38238701  0.69915513  0.44485078     0.99300
O171        O  0.36474981  0.67198642  0.40987636    -0.69200
O172        O  0.30751348  0.63163661  0.33740433    -0.72800
Al173      Al  0.36190468  0.68829684  0.34380355     1.49000
C174        C  0.26841949  0.61808898  0.35275353     0.94500
O175        O  0.26207238  0.71732086  0.40199831    -0.79000
O176        O  0.34152979  0.80102174  0.37487461    -0.72600
Al177      Al  0.28174539  0.70360670  0.34163443     1.90100
O178        O  0.32050835  0.74166460  0.44999317    -0.71600
O179        O  0.41577189  0.79593787  0.35961987    -0.71500
O180        O  0.39367050  0.73975191  0.44005143    -0.77100
O181        O  0.42280228  0.73744269  0.34586317    -0.75300
O182        O  0.33643905  0.71953837  0.36237161    -1.11500
O183        O  0.36008271  0.70164974  0.27621947    -0.70700
C184        C  0.32477808  0.69338958  0.25387219     1.00100
C185        C  0.27977013  0.72779013  0.44396649     0.96400
Al186      Al  0.36559695  0.76593834  0.40239284     1.55600
O187        O  0.25653096  0.64512189  0.36609411    -0.75300
C188        C  0.43958547  0.77927318  0.34793817     1.00600
C189        C  0.31654116  0.79515093  0.33848715     0.95500
O190        O  0.29925886  0.75954730  0.31461931    -0.80600
O191        O  0.20329779  0.77400898  0.73186428    -0.80100
C192        C  0.21548818  0.86606368  0.56397549     0.99300
O193        O  0.18831887  0.84842701  0.59895342    -0.69200
O194        O  0.14796334  0.79117548  0.67141606    -0.72800
Al195      Al  0.20462916  0.84556560  0.66501913     1.49000
C196        C  0.13441637  0.75209268  0.65603883     0.94500
O197        O  0.23366041  0.74574330  0.60680914    -0.79000
O198        O  0.31735516  0.82518475  0.63394345    -0.72600
Al199      Al  0.21992946  0.76540613  0.66716771     1.90100
O200        O  0.25799935  0.80417867  0.55881608    -0.71600
O201        O  0.31227453  0.89943076  0.64918829    -0.71500
O202        O  0.25608503  0.87733360  0.56876207    -0.77100
O203        O  0.25377480  0.90645567  0.66296007    -0.75300
O204        O  0.23586990  0.82010202  0.64643934    -1.11500
O205        O  0.21798794  0.84373203  0.73259703    -0.70700
C206        C  0.20971178  0.80841996  0.75493660     1.00100
C207        C  0.24412561  0.76344245  0.56484057     0.96400
Al208      Al  0.28227390  0.84925950  0.60641844     1.55600
O209        O  0.16145237  0.74020992  0.64268718    -0.75300
C210        C  0.29560641  0.92323933  0.66087687     1.00600
C211        C  0.31147538  0.80019152  0.67033218     0.95500
O212        O  0.27586525  0.78291123  0.69419660    -0.80600
O213        O  0.42014834  0.70773482  0.61028853    -0.80100
C214        C  0.34029475  0.61567508  0.77818137     0.99300
O215        O  0.33076116  0.63331583  0.74321107    -0.69200
O216        O  0.34765231  0.69056827  0.67075261    -0.72800
Al217      Al  0.34991985  0.63617686  0.67714178     1.49000
C218        C  0.37319873  0.72965480  0.68612009     0.94500
O219        O  0.47880158  0.73599676  0.73534297    -0.79000
O220        O  0.48303478  0.65656143  0.70819342    -0.72600
Al221      Al  0.44539449  0.71633838  0.67498300     1.90100
O222        O  0.44470018  0.67755653  0.78333187    -0.71600
O223        O  0.40370394  0.58232470  0.69293943    -0.71500
O224        O  0.36961416  0.60439967  0.77338035    -0.77100
O225        O  0.33816761  0.57528310  0.67919356    -0.75300
O226        O  0.40663210  0.66164266  0.69571166    -1.11500
O227        O  0.36509940  0.63801225  0.60956028    -0.70700
C228        C  0.39213687  0.67332507  0.58721882     1.00100
C229        C  0.47157772  0.71829168  0.77730916     0.96400
Al230      Al  0.42387977  0.63248284  0.73572121     1.55600
O231        O  0.41212113  0.74153753  0.69946989    -0.75300
C232        C  0.36322212  0.55850859  0.68126098     1.00600
C233        C  0.00214652  0.68155392  0.67180362     0.95500
O234        O  0.48381625  0.69883201  0.64794330    -0.80600
O235        O  0.09431750  0.79477880  0.06521131    -0.80100
C236        C  0.17417152  0.78259565  0.89731436     0.99300
O237        O  0.18370456  0.80977162  0.93228034    -0.69200
O238        O  0.16682295  0.85012973  0.00474194    -0.72800
Al239      Al  0.16455254  0.79347095  0.99835548     1.49000
C240        C  0.14127403  0.86366779  0.98938159     0.94500
O241        O  0.03567881  0.76440713  0.94015172    -0.79000
O242        O  0.03142815  0.68073141  0.96729660    -0.72600
Al243      Al  0.06907676  0.77814600  0.00051751     1.90100
O244        O  0.06978406  0.74007750  0.89216565    -0.71600
O245        O  0.11075979  0.68582837  0.98257229    -0.71500
O246        O  0.14486090  0.74199589  0.90212702    -0.77100
O247        O  0.17630092  0.74432807  0.99630509    -0.75300
O248        O  0.10783971  0.76221985  0.97978980    -1.11500
O249        O  0.14937783  0.78012648  0.06594227    -0.70700
C250        C  0.12233407  0.78839032  0.08828237     1.00100
C251        C  0.04291178  0.75393915  0.89818487     0.96400
Al252      Al  0.09059135  0.71581335  0.93978090     1.55600
O253        O  0.10234954  0.83662593  0.97603938    -0.75300
C254        C  0.15124373  0.70249671  0.99424285     1.00600
C255        C  0.01231651  0.68660653  0.00368649     0.95500
O256        O  0.03065351  0.72221002  0.02755349    -0.80600
O257        O  0.31117073  0.57794211  0.94362217    -0.80100
C258        C  0.29896605  0.65779209  0.11151267     0.99300
O259        O  0.32613953  0.66732933  0.07653887    -0.69200
O260        O  0.36650383  0.65043655  0.00408686    -0.72800
Al261      Al  0.30983796  0.64816030  0.01047085     1.49000
C262        C  0.38004486  0.62489309  0.01945710     0.94500
O263        O  0.28078654  0.51928650  0.06866471    -0.79000
O264        O  0.19710832  0.51504067  0.04153866    -0.72600
Al265      Al  0.29452880  0.55269565  0.00831363     1.90100
O266        O  0.25646116  0.55338417  0.11666488    -0.71600
O267        O  0.20219067  0.59436869  0.02629358    -0.71500
O268        O  0.25837183  0.62845554  0.10672413    -0.77100
O269        O  0.26069215  0.65989895  0.01251832    -0.75300
O270        O  0.27859367  0.59145093  0.02904665    -1.11500
O271        O  0.29648571  0.63297617  0.94289231    -0.70700
C272        C  0.30475589  0.60594039  0.92055136     1.00100
C273        C  0.27032631  0.52651716  0.11063460     0.96400
Al274      Al  0.23218784  0.57419553  0.06906463     1.55600
O275        O  0.35300378  0.58596951  0.03280219    -0.75300
C276        C  0.21886042  0.63484758  0.01460307     1.00600
C277        C  0.20298700  0.99593416  0.00514691     0.95500
O278        O  0.23859358  0.51427407  0.98127661    -0.80600
O279        O  0.22408016  0.90384895  0.39854983    -0.80100
C280        C  0.13205666  0.82397192  0.23064302     0.99300
O281        O  0.14969250  0.81444527  0.26562345    -0.69200
O282        O  0.20693108  0.83134151  0.33808807    -0.72800
Al283      Al  0.15253938  0.83360674  0.33168999     1.49000
C284        C  0.24602334  0.85689067  0.32273071     0.94500
O285        O  0.25237222  0.96247134  0.27348262    -0.79000
O286        O  0.17292950  0.96671149  0.30057692    -0.72600
Al287      Al  0.23269915  0.92908255  0.33384919     1.90100
O288        O  0.19394326  0.92835118  0.22548198    -0.71600
O289        O  0.09868244  0.88738637  0.31585170    -0.71500
O290        O  0.12077077  0.85328279  0.23543390    -0.77100
O291        O  0.09164356  0.82185740  0.32963016    -0.75300
O292        O  0.17800705  0.89031414  0.31311186    -1.11500
O293        O  0.15436263  0.84878531  0.39926932    -0.70700
C294        C  0.18966751  0.87583054  0.42161451     1.00100
C295        C  0.23467998  0.95522362  0.23151054     0.96400
Al296      Al  0.14885417  0.90755172  0.27307800     1.55600
O297        O  0.25791436  0.89581638  0.30939498    -0.75300
C298        C  0.07486620  0.84690856  0.32754802     1.00600
C299        C  0.19790579  0.98582788  0.33697336     0.95500
O300        O  0.21517868  0.96750446  0.36085592    -0.80600
C301        C  0.27021840  0.50148724  0.15237086    -0.11500
C302        C  0.25960061  0.98024562  0.18976821    -0.13100
C303        C  0.12456858  0.79332612  0.14074468    -0.11500
C304        C  0.12664947  0.80339870  0.18344791    -0.13100
C305        C  0.17241863  0.95005168  0.99479838    -0.11500
C306        C  0.15594612  0.91037402  0.98985036    -0.13100
C307        C  0.19047269  0.65396666  0.00674577    -0.11500
C308        C  0.17035587  0.67410311  0.00210033    -0.13100
C309        C  0.42675321  0.63956648  0.01899009    -0.11500
C310        C  0.46643253  0.65603749  0.01403841    -0.13100
C311        C  0.49662621  0.74319709  0.81904794    -0.11500
C312        C  0.01787783  0.75381573  0.85644074    -0.13100
C313        C  0.31972250  0.61025192  0.82537895    -0.11500
C314        C  0.30966607  0.60816519  0.86808823    -0.13100
C315        C  0.19473471  0.79774738  0.85010978    -0.11500
C316        C  0.20479265  0.80572422  0.80740052    -0.13100
C317        C  0.04802606  0.69686070  0.66144701    -0.11500
C318        C  0.08770664  0.72006200  0.65650032    -0.13100
C319        C  0.34411075  0.51100255  0.67339471    -0.11500
C320        C  0.32399511  0.97074801  0.66873945    -0.13100
C321        C  0.35852712  0.76168833  0.68564655    -0.11500
C322        C  0.34205023  0.78488830  0.68068891    -0.13100
C323        C  0.19235557  0.87359125  0.47407872    -0.11500
C324        C  0.20033045  0.87149275  0.51678281    -0.13100
C325        C  0.02735574  0.82779391  0.33541754    -0.11500
C326        C  0.48709785  0.80766674  0.34007503    -0.13100
C327        C  0.27805270  0.84221480  0.32319302    -0.11500
C328        C  0.30124673  0.82573101  0.32813760    -0.13100
C329        C  0.23638682  0.57138159  0.35227537    -0.11500
C330        C  0.21319582  0.53170289  0.34732056    -0.13100
C331        C  0.32208893  0.68846034  0.20140781    -0.11500
C332        C  0.31411640  0.67838379  0.15870405    -0.13100
C333        C  0.25485121  0.72790266  0.48570461    -0.11500
C334        C  0.24423251  0.73852676  0.52309962    -0.13100
C335        C  0.38780308  0.68399873  0.49204996    -0.11500
C336        C  0.38989713  0.67602263  0.53475619    -0.13100
O337        O  0.79036655  0.18699568  0.27693560    -0.80100
C338        C  0.88238707  0.19915522  0.44485079     0.99300
O339        O  0.86474986  0.17198641  0.40987632    -0.69200
O340        O  0.80751350  0.13163662  0.33740433    -0.72800
Al341      Al  0.86190472  0.18829689  0.34380353     1.49000
C342        C  0.76841958  0.11808909  0.35275354     0.94500
O343        O  0.76207243  0.21732096  0.40199833    -0.79000
O344        O  0.84152982  0.30102177  0.37487463    -0.72600
Al345      Al  0.78174539  0.20360670  0.34163444     1.90100
O346        O  0.82050840  0.24166468  0.44999321    -0.71600
O347        O  0.91577185  0.29593793  0.35961984    -0.71500
O348        O  0.89367049  0.23975188  0.44005144    -0.77100
O349        O  0.92280232  0.23744280  0.34586318    -0.75300
O350        O  0.83643905  0.21953837  0.36237163    -1.11500
O351        O  0.86008262  0.20164981  0.27621943    -0.70700
C352        C  0.82477807  0.19338955  0.25387218     1.00100
C353        C  0.77977002  0.22779019  0.44396647     0.96400
Al354      Al  0.86559695  0.26593836  0.40239284     1.55600
O355        O  0.75653097  0.14512188  0.36609413    -0.75300
C356        C  0.93958556  0.27927325  0.34793815     1.00600
C357        C  0.81654116  0.29515083  0.33848709     0.95500
O358        O  0.79925893  0.25954735  0.31461931    -0.80600
O359        O  0.70329777  0.27400889  0.73186425    -0.80100
C360        C  0.71548800  0.36606362  0.56397552     0.99300
O361        O  0.68831876  0.34842698  0.59895349    -0.69200
O362        O  0.64796336  0.29117549  0.67141609    -0.72800
Al363      Al  0.70462914  0.34556556  0.66501917     1.49000
C364        C  0.63441637  0.25209268  0.65603882     0.94500
O365        O  0.73366046  0.24574337  0.60680916    -0.79000
O366        O  0.81735525  0.32518483  0.63394348    -0.72600
Al367      Al  0.71992950  0.26540616  0.66716770     1.90100
O368        O  0.75799941  0.30417870  0.55881606    -0.71600
O369        O  0.81227456  0.39943081  0.64918823    -0.71500
O370        O  0.75608486  0.37733351  0.56876201    -0.77100
O371        O  0.75377479  0.40645562  0.66296009    -0.75300
O372        O  0.73586993  0.32010203  0.64643933    -1.11500
O373        O  0.71798796  0.34373194  0.73259706    -0.70700
C374        C  0.70971179  0.30841997  0.75493659     1.00100
C375        C  0.74412560  0.26344248  0.56484053     0.96400
Al376      Al  0.78227390  0.34925955  0.60641841     1.55600
O377        O  0.66145242  0.24020997  0.64268716    -0.75300
C378        C  0.79560629  0.42323943  0.66087690     1.00600
C379        C  0.81147541  0.30019157  0.67033215     0.95500
O380        O  0.77586530  0.28291131  0.69419661    -0.80600
O381        O  0.92014841  0.20773490  0.61028855    -0.80100
C382        C  0.84029474  0.11567498  0.77818140     0.99300
O383        O  0.83076121  0.13331586  0.74321108    -0.69200
O384        O  0.84765231  0.19056824  0.67075264    -0.72800
Al385      Al  0.84991988  0.13617688  0.67714180     1.49000
C386        C  0.87319881  0.22965483  0.68612011     0.94500
O387        O  0.97880162  0.23599681  0.73534299    -0.79000
O388        O  0.98303478  0.15656146  0.70819341    -0.72600
Al389      Al  0.94539452  0.21633843  0.67498300     1.90100
O390        O  0.94470016  0.17755653  0.78333184    -0.71600
O391        O  0.90370392  0.08232462  0.69293944    -0.71500
O392        O  0.86961409  0.10439955  0.77338032    -0.77100
O393        O  0.83816765  0.07528311  0.67919353    -0.75300
O394        O  0.90663211  0.16164270  0.69571167    -1.11500
O395        O  0.86509946  0.13801233  0.60956027    -0.70700
C396        C  0.89213680  0.17332495  0.58721883     1.00100
C397        C  0.97157775  0.21829171  0.77730915     0.96400
Al398      Al  0.92387976  0.13248283  0.73572121     1.55600
O399        O  0.91212114  0.24153756  0.69946984    -0.75300
C400        C  0.86322219  0.05850865  0.68126100     1.00600
C401        C  0.50214653  0.18155384  0.67180366     0.95500
O402        O  0.98381631  0.19883205  0.64794329    -0.80600
O403        O  0.59431757  0.29477889  0.06521131    -0.80100
C404        C  0.67417157  0.28259571  0.89731437     0.99300
O405        O  0.68370463  0.30977170  0.93228035    -0.69200
O406        O  0.66682300  0.35012976  0.00474194    -0.72800
Al407      Al  0.66455259  0.29347100  0.99835548     1.49000
C408        C  0.64127408  0.36366782  0.98938159     0.94500
O409        O  0.53567880  0.26440721  0.94015171    -0.79000
O410        O  0.53142823  0.18073149  0.96729662    -0.72600
Al411      Al  0.56907680  0.27814607  0.00051750     1.90100
O412        O  0.56978397  0.24007743  0.89216569    -0.71600
O413        O  0.61075980  0.18582839  0.98257228    -0.71500
O414        O  0.64486094  0.24199597  0.90212702    -0.77100
O415        O  0.67630094  0.24432805  0.99630509    -0.75300
O416        O  0.60783974  0.26221992  0.97978978    -1.11500
O417        O  0.64937789  0.28012656  0.06594227    -0.70700
C418        C  0.62233414  0.28839040  0.08828234     1.00100
C419        C  0.54291174  0.25393916  0.89818482     0.96400
Al420      Al  0.59059138  0.21581339  0.93978091     1.55600
O421        O  0.60234957  0.33662595  0.97603937    -0.75300
C422        C  0.65124380  0.20249680  0.99424285     1.00600
C423        C  0.51231658  0.18660660  0.00368651     0.95500
O424        O  0.53065358  0.22221011  0.02755349    -0.80600
O425        O  0.81117061  0.07794195  0.94362217    -0.80100
C426        C  0.79896606  0.15779207  0.11151265     0.99300
O427        O  0.82613942  0.16732931  0.07653890    -0.69200
O428        O  0.86650386  0.15043661  0.00408688    -0.72800
Al429      Al  0.80983796  0.14816028  0.01047084     1.49000
C430        C  0.88004490  0.12489314  0.01945710     0.94500
O431        O  0.78078656  0.01928649  0.06866474    -0.79000
O432        O  0.69710834  0.01504065  0.04153864    -0.72600
Al433      Al  0.79452880  0.05269559  0.00831364     1.90100
O434        O  0.75646116  0.05338417  0.11666487    -0.71600
O435        O  0.70219057  0.09436849  0.02629357    -0.71500
O436        O  0.75837169  0.12845542  0.10672408    -0.77100
O437        O  0.76069200  0.15989879  0.01251830    -0.75300
O438        O  0.77859367  0.09145088  0.02904664    -1.11500
O439        O  0.79648578  0.13297615  0.94289230    -0.70700
C440        C  0.80475585  0.10594021  0.92055135     1.00100
C441        C  0.77032634  0.02651706  0.11063461     0.96400
Al442      Al  0.73218782  0.07419546  0.06906461     1.55600
O443        O  0.85300382  0.08596954  0.03280216    -0.75300
C444        C  0.71886045  0.13484755  0.01460305     1.00600
C445        C  0.70298700  0.49593422  0.00514691     0.95500
O446        O  0.73859360  0.01427397  0.98127663    -0.80600
O447        O  0.72408019  0.40384896  0.39854982    -0.80100
C448        C  0.63205668  0.32397192  0.23064304     0.99300
O449        O  0.64969251  0.31444526  0.26562345    -0.69200
O450        O  0.70693095  0.33134130  0.33808812    -0.72800
Al451      Al  0.65253935  0.33360669  0.33169000     1.49000
C452        C  0.74602329  0.35689066  0.32273067     0.94500
O453        O  0.75237224  0.46247129  0.27348263    -0.79000
O454        O  0.67292954  0.46671149  0.30057692    -0.72600
Al455      Al  0.73269912  0.42908248  0.33384917     1.90100
O456        O  0.69394331  0.42835118  0.22548197    -0.71600
O457        O  0.59868247  0.38738640  0.31585168    -0.71500
O458        O  0.62077079  0.35328278  0.23543388    -0.77100
O459        O  0.59164356  0.32185741  0.32963017    -0.75300
O460        O  0.67800702  0.39031409  0.31311188    -1.11500
O461        O  0.65436266  0.34878532  0.39926932    -0.70700
C462        C  0.68966751  0.37583055  0.42161449     1.00100
C463        C  0.73467991  0.45522352  0.23151053     0.96400
Al464      Al  0.64885418  0.40755171  0.27307800     1.55600
O465        O  0.75791417  0.39581615  0.30939496    -0.75300
C466        C  0.57486607  0.34690860  0.32754803     1.00600
C467        C  0.69790587  0.48582797  0.33697336     0.95500
O468        O  0.71517874  0.46750446  0.36085591    -0.80600
C469        C  0.77021841  0.00148728  0.15237079    -0.11500
C470        C  0.75960069  0.48024567  0.18976813    -0.13100
C471        C  0.62456860  0.29332614  0.14074471    -0.11500
C472        C  0.62664944  0.30339862  0.18344791    -0.13100
C473        C  0.67241868  0.45005166  0.99479840    -0.11500
C474        C  0.65594615  0.41037401  0.98985037    -0.13100
C475        C  0.69047253  0.15396650  0.00674579    -0.11500
C476        C  0.67035585  0.17410303  0.00210034    -0.13100
C477        C  0.92675322  0.13956653  0.01899009    -0.11500
C478        C  0.96643258  0.15603753  0.01403835    -0.13100
C479        C  0.99662621  0.24319705  0.81904797    -0.11500
C480        C  0.51787784  0.25381575  0.85644075    -0.13100
C481        C  0.81972250  0.11025186  0.82537893    -0.11500
C482        C  0.80966601  0.10816503  0.86808826    -0.13100
C483        C  0.69473476  0.29774741  0.85010977    -0.11500
C484        C  0.70479263  0.30572413  0.80740052    -0.13100
C485        C  0.54802607  0.19686059  0.66144697    -0.11500
C486        C  0.58770666  0.22006200  0.65650032    -0.13100
C487        C  0.84411065  0.01100240  0.67339470    -0.11500
C488        C  0.82399498  0.47074795  0.66873942    -0.13100
C489        C  0.85852709  0.26168829  0.68564652    -0.11500
C490        C  0.84205021  0.28488822  0.68068887    -0.13100
C491        C  0.69235554  0.37359127  0.47407872    -0.11500
C492        C  0.70033022  0.37149265  0.51678284    -0.13100
C493        C  0.52735588  0.32779406  0.33541751    -0.11500
C494        C  0.98709777  0.30766680  0.34007506    -0.13100
C495        C  0.77805268  0.34221468  0.32319302    -0.11500
C496        C  0.80124670  0.32573105  0.32813758    -0.13100
C497        C  0.73638679  0.07138149  0.35227536    -0.11500
C498        C  0.71319587  0.03170298  0.34732058    -0.13100
C499        C  0.82208872  0.18846017  0.20140787    -0.11500
C500        C  0.81411622  0.17838358  0.15870406    -0.13100
C501        C  0.75485118  0.22790269  0.48570457    -0.11500
C502        C  0.74423232  0.23852671  0.52309964    -0.13100
C503        C  0.88780312  0.18399874  0.49204998    -0.11500
C504        C  0.88989719  0.17602268  0.53475617    -0.13100
O505        O  0.79036675  0.68699581  0.27693555    -0.80100
C506        C  0.88238697  0.69915511  0.44485079     0.99300
O507        O  0.86474975  0.67198641  0.40987637    -0.69200
O508        O  0.80751345  0.63163662  0.33740432    -0.72800
Al509      Al  0.86190470  0.68829682  0.34380356     1.49000
C510        C  0.76841946  0.61808900  0.35275352     0.94500
O511        O  0.76207254  0.71732091  0.40199835    -0.79000
O512        O  0.84152983  0.80102176  0.37487463    -0.72600
Al513      Al  0.78174545  0.70360673  0.34163442     1.90100
O514        O  0.82050854  0.74166462  0.44999319    -0.71600
O515        O  0.91577196  0.79593785  0.35961981    -0.71500
O516        O  0.89367055  0.73975191  0.44005141    -0.77100
O517        O  0.92280237  0.73744268  0.34586320    -0.75300
O518        O  0.83643909  0.71953837  0.36237161    -1.11500
O519        O  0.86008275  0.70164971  0.27621946    -0.70700
C520        C  0.82477822  0.69338959  0.25387218     1.00100
C521        C  0.77977014  0.72779010  0.44396650     0.96400
Al522      Al  0.86559702  0.76593834  0.40239283     1.55600
O523        O  0.75653091  0.64512189  0.36609410    -0.75300
C524        C  0.93958546  0.77927315  0.34793819     1.00600
C525        C  0.81654129  0.79515096  0.33848719     0.95500
O526        O  0.79925904  0.75954734  0.31461926    -0.80600
O527        O  0.70329773  0.77400897  0.73186427    -0.80100
C528        C  0.71548815  0.86606369  0.56397549     0.99300
O529        O  0.68831885  0.84842700  0.59895344    -0.69200
O530        O  0.64796335  0.79117549  0.67141607    -0.72800
Al531      Al  0.70462916  0.84556559  0.66501914     1.49000
C532        C  0.63441634  0.75209268  0.65603882     0.94500
O533        O  0.73366052  0.74574331  0.60680916    -0.79000
O534        O  0.81735515  0.82518474  0.63394346    -0.72600
Al535      Al  0.71992946  0.76540612  0.66716771     1.90100
O536        O  0.75799926  0.80417865  0.55881608    -0.71600
O537        O  0.81227450  0.89943077  0.64918828    -0.71500
O538        O  0.75608499  0.87733360  0.56876206    -0.77100
O539        O  0.75377477  0.90645566  0.66296007    -0.75300
O540        O  0.73586990  0.82010201  0.64643933    -1.11500
O541        O  0.71798795  0.84373204  0.73259703    -0.70700
C542        C  0.70971174  0.80841996  0.75493659     1.00100
C543        C  0.74412561  0.76344243  0.56484052     0.96400
Al544      Al  0.78227386  0.84925950  0.60641842     1.55600
O545        O  0.66145235  0.74020992  0.64268715    -0.75300
C546        C  0.79560639  0.92323934  0.66087687     1.00600
C547        C  0.81147534  0.80019153  0.67033217     0.95500
O548        O  0.77586527  0.78291123  0.69419662    -0.80600
O549        O  0.92014834  0.70773482  0.61028854    -0.80100
C550        C  0.84029478  0.61567511  0.77818133     0.99300
O551        O  0.83076129  0.63331582  0.74321111    -0.69200
O552        O  0.84765236  0.69056830  0.67075266    -0.72800
Al553      Al  0.84991987  0.63617687  0.67714179     1.49000
C554        C  0.87319876  0.72965475  0.68612009     0.94500
O555        O  0.97880179  0.73599673  0.73534294    -0.79000
O556        O  0.98303480  0.65656144  0.70819340    -0.72600
Al557      Al  0.94539454  0.71633837  0.67498298     1.90100
O558        O  0.94470023  0.67755655  0.78333187    -0.71600
O559        O  0.90370393  0.58232469  0.69293942    -0.71500
O560        O  0.86961429  0.60439966  0.77338039    -0.77100
O561        O  0.83816760  0.57528312  0.67919356    -0.75300
O562        O  0.90663214  0.66164266  0.69571166    -1.11500
O563        O  0.86509935  0.63801226  0.60956029    -0.70700
C564        C  0.89213683  0.67332508  0.58721882     1.00100
C565        C  0.97157789  0.71829168  0.77730912     0.96400
Al566      Al  0.92387982  0.63248284  0.73572121     1.55600
O567        O  0.91212122  0.74153754  0.69946989    -0.75300
C568        C  0.86322210  0.55850860  0.68126099     1.00600
C569        C  0.50214656  0.68155392  0.67180366     0.95500
O570        O  0.98381626  0.69883197  0.64794325    -0.80600
O571        O  0.59431759  0.79477884  0.06521129    -0.80100
C572        C  0.67417148  0.78259565  0.89731435     0.99300
O573        O  0.68370452  0.80977163  0.93228034    -0.69200
O574        O  0.66682293  0.85012974  0.00474195    -0.72800
Al575      Al  0.66455255  0.79347095  0.99835548     1.49000
C576        C  0.64127401  0.86366779  0.98938159     0.94500
O577        O  0.53567880  0.76440714  0.94015173    -0.79000
O578        O  0.53142816  0.68073145  0.96729667    -0.72600
Al579      Al  0.56907680  0.77814602  0.00051749     1.90100
O580        O  0.56978401  0.74007749  0.89216564    -0.71600
O581        O  0.61075981  0.68582840  0.98257228    -0.71500
O582        O  0.64486086  0.74199590  0.90212701    -0.77100
O583        O  0.67630099  0.74432807  0.99630504    -0.75300
O584        O  0.60783972  0.76221985  0.97978978    -1.11500
O585        O  0.64937787  0.78012645  0.06594229    -0.70700
C586        C  0.62233405  0.78839033  0.08828236     1.00100
C587        C  0.54291172  0.75393915  0.89818485     0.96400
Al588      Al  0.59059136  0.71581335  0.93978090     1.55600
O589        O  0.60234953  0.83662593  0.97603935    -0.75300
C590        C  0.65124386  0.70249676  0.99424285     1.00600
C591        C  0.51231658  0.68660653  0.00368644     0.95500
O592        O  0.53065358  0.72221012  0.02755351    -0.80600
O593        O  0.81117070  0.57794209  0.94362218    -0.80100
C594        C  0.79896620  0.65779214  0.11151263     0.99300
O595        O  0.82613952  0.66732930  0.07653891    -0.69200
O596        O  0.86650381  0.65043653  0.00408687    -0.72800
Al597      Al  0.80983797  0.64816030  0.01047085     1.49000
C598        C  0.88004485  0.62489306  0.01945711     0.94500
O599        O  0.78078653  0.51928651  0.06866473    -0.79000
O600        O  0.69710828  0.51504066  0.04153865    -0.72600
Al601      Al  0.79452879  0.55269564  0.00831363     1.90100
O602        O  0.75646114  0.55338419  0.11666488    -0.71600
O603        O  0.70219065  0.59436869  0.02629359    -0.71500
O604        O  0.75837180  0.62845552  0.10672412    -0.77100
O605        O  0.76069215  0.65989895  0.01251832    -0.75300
O606        O  0.77859367  0.59145093  0.02904666    -1.11500
O607        O  0.79648572  0.63297617  0.94289229    -0.70700
C608        C  0.80475591  0.60594040  0.92055137     1.00100
C609        C  0.77032638  0.52651712  0.11063456     0.96400
Al610      Al  0.73218783  0.57419553  0.06906463     1.55600
O611        O  0.85300381  0.58596948  0.03280216    -0.75300
C612        C  0.71886041  0.63484759  0.01460307     1.00600
C613        C  0.70298696  0.99593417  0.00514691     0.95500
O614        O  0.73859357  0.51427412  0.98127660    -0.80600
O615        O  0.72408013  0.90384892  0.39854984    -0.80100
C616        C  0.63205662  0.82397191  0.23064303     0.99300
O617        O  0.64969244  0.81444526  0.26562345    -0.69200
O618        O  0.70693104  0.83134150  0.33808806    -0.72800
Al619      Al  0.65253935  0.83360674  0.33169000     1.49000
C620        C  0.74602329  0.85689067  0.32273071     0.94500
O621        O  0.75237219  0.96247135  0.27348262    -0.79000
O622        O  0.67292962  0.96671152  0.30057687    -0.72600
Al623      Al  0.73269914  0.92908255  0.33384920     1.90100
O624        O  0.69394326  0.92835114  0.22548196    -0.71600
O625        O  0.59868245  0.88738639  0.31585169    -0.71500
O626        O  0.62077075  0.85328280  0.23543390    -0.77100
O627        O  0.59164351  0.82185740  0.32963017    -0.75300
O628        O  0.67800704  0.89031413  0.31311187    -1.11500
O629        O  0.65436259  0.84878529  0.39926931    -0.70700
C630        C  0.68966762  0.87583059  0.42161451     1.00100
C631        C  0.73467998  0.95522364  0.23151054     0.96400
Al632      Al  0.64885419  0.90755172  0.27307799     1.55600
O633        O  0.75791433  0.89581638  0.30939498    -0.75300
C634        C  0.57486611  0.84690855  0.32754802     1.00600
C635        C  0.69790578  0.98582788  0.33697334     0.95500
O636        O  0.71517866  0.96750446  0.36085599    -0.80600
C637        C  0.77021841  0.50148727  0.15237086    -0.11500
C638        C  0.75960063  0.98024564  0.18976820    -0.13100
C639        C  0.62456856  0.79332611  0.14074469    -0.11500
C640        C  0.62664941  0.80339869  0.18344791    -0.13100
C641        C  0.67241858  0.95005168  0.99479838    -0.11500
C642        C  0.65594607  0.91037402  0.98985037    -0.13100
C643        C  0.69047270  0.65396662  0.00674578    -0.11500
C644        C  0.67035583  0.67410310  0.00210032    -0.13100
C645        C  0.92675319  0.63956649  0.01899008    -0.11500
C646        C  0.96643249  0.65603746  0.01403832    -0.13100
C647        C  0.99662638  0.74319707  0.81904792    -0.11500
C648        C  0.51787774  0.75381572  0.85644075    -0.13100
C649        C  0.81972258  0.61025191  0.82537894    -0.11500
C650        C  0.80966617  0.60816521  0.86808822    -0.13100
C651        C  0.69473466  0.79774738  0.85010978    -0.11500
C652        C  0.70479259  0.80572422  0.80740052    -0.13100
C653        C  0.54802600  0.69686067  0.66144702    -0.11500
C654        C  0.58770667  0.72006205  0.65650032    -0.13100
C655        C  0.84411070  0.51100255  0.67339471    -0.11500
C656        C  0.82399506  0.97074801  0.66873945    -0.13100
C657        C  0.85852717  0.76168839  0.68564657    -0.11500
C658        C  0.84205030  0.78488829  0.68068891    -0.13100
C659        C  0.69235555  0.87359123  0.47407870    -0.11500
C660        C  0.70033040  0.87149275  0.51678283    -0.13100
C661        C  0.52735574  0.82779396  0.33541752    -0.11500
C662        C  0.98709799  0.80766677  0.34007503    -0.13100
C663        C  0.77805269  0.84221475  0.32319303    -0.11500
C664        C  0.80124668  0.82573099  0.32813759    -0.13100
C665        C  0.73638682  0.57138160  0.35227537    -0.11500
C666        C  0.71319591  0.53170290  0.34732054    -0.13100
C667        C  0.82208896  0.68846035  0.20140782    -0.11500
C668        C  0.81411639  0.67838378  0.15870405    -0.13100
C669        C  0.75485139  0.72790268  0.48570458    -0.11500
C670        C  0.74423253  0.73852678  0.52309963    -0.13100
C671        C  0.88780302  0.68399872  0.49204996    -0.11500
C672        C  0.88989708  0.67602264  0.53475620    -0.13100
loop_ 
_geom_bond_atom_site_label_1 
_geom_bond_atom_site_label_2 
_geom_bond_distance 
_geom_bond_site_symmetry_2 
_ccdc_geom_bond_type 
O1           C16   1.266       .  A
O1           Al9   1.925       .  S
C2           O12   1.265       .  A
C2            O3   1.263       .  A
C2          C167   1.437       .  S
O3           Al5   1.905       .  S
O4            C6   1.264       .  A
O4           Al5   1.934       .  S
Al5          O13   1.941       .  S
Al5          O15   1.908       .  S
Al5          O14   1.779       .  S
C6           O19   1.252       .  A
C6          C161   1.435       .  S
O7           C17   1.263       .  A
O7           Al9   1.930       .  S
O8           C21   1.265       .  A
O8          Al18   1.938       .  S
Al9          O22   1.870       .  S
Al9          O19   1.884       .  S
Al9          O14   1.781       .  S
O10          C17   1.255       .  A
O10         Al18   1.876       .  S
O11          C20   1.263       .  A
O11         Al18   1.913       .  S
O12         Al18   1.926       .  S
O13          C20   1.266       .  A
O14         Al18   1.782       .  S
O15          C16   1.265       .  A
C16         C163   1.438       .  S
C17         C165   1.430       .  S
C20         C158   1.452       .  S
C21          O22   1.252       .  A
C21         C160   1.431       .  S
O23          C38   1.266       .  A
O23         Al31   1.925       .  S
C24          O34   1.265       .  A
C24          O25   1.263       .  A
C24         C156   1.437       .  S
O25         Al27   1.905       .  S
O26          C28   1.264       .  A
O26         Al27   1.934       .  S
Al27         O35   1.941       .  S
Al27         O37   1.908       .  S
Al27         O36   1.779       .  S
C28          O41   1.252       .  A
C28         C150   1.435       .  S
O29          C39   1.263       .  A
O29         Al31   1.930       .  S
O30          C43   1.265       .  A
O30         Al40   1.938       .  S
Al31         O44   1.870       .  S
Al31         O41   1.884       .  S
Al31         O36   1.781       .  S
O32          C39   1.255       .  A
O32         Al40   1.876       .  S
O33          C42   1.263       .  A
O33         Al40   1.913       .  S
O34         Al40   1.926       .  S
O35          C42   1.266       .  A
O36         Al40   1.782       .  S
O37          C38   1.265       .  A
C38         C148   1.438       .  S
C39         C166   1.430       .  S
C42         C152   1.452       .  S
C43          O44   1.252       .  A
C43         C154   1.431       .  S
O45          C60   1.266       .  A
O45         Al53   1.925       .  S
C46          O56   1.265       .  A
C46          O47   1.263       .  A
C46         C145   1.437       .  S
O47         Al49   1.905       .  S
O48          C50   1.264       .  A
O48         Al49   1.935       .  S
Al49         O57   1.941       .  S
Al49         O59   1.908       .  S
Al49         O58   1.779       .  S
C50          O63   1.252       .  A
C50         C153   1.435       .  S
O51          C61   1.263       .  A
O51         Al53   1.930       .  S
O52         C401   1.265       .  A
O52         Al62   1.938       .  S
Al53         O66   1.870       .  S
Al53         O63   1.884       .  S
Al53         O58   1.781       .  S
O54          C61   1.255       .  A
O54         Al62   1.876       .  S
O55          C64   1.263       .  A
O55         Al62   1.913       .  S
O56         Al62   1.926       .  S
O57          C64   1.266       .  A
O58         Al62   1.782       .  S
O59          C60   1.265       .  A
C60         C168   1.438       .  S
C61         C143   1.430       .  S
C64         C151   1.452       .  S
C65         O388   1.265   1_455  A
C65         O402   1.252   1_455  A
C65         C149   1.431       .  S
O66         C401   1.252       .  A
O67          C82   1.266       .  A
O67         Al75   1.925       .  S
C68          O78   1.265       .  A
C68          O69   1.263       .  A
C68         C147   1.437       .  S
O69         Al71   1.905       .  S
O70          C72   1.264   1_554  A
O70         Al71   1.934   1_554  S
Al71         O79   1.941       .  S
Al71         O81   1.908   1_556  S
Al71         O80   1.779       .  S
C72          O85   1.252       .  A
C72         C138   1.435       .  S
O73          C83   1.263       .  A
O73         Al75   1.930   1_556  S
O74          C87   1.265   1_556  A
O74         Al84   1.938       .  S
Al75         O88   1.870       .  S
Al75         O85   1.884   1_554  S
Al75         O80   1.781   1_554  S
O76          C83   1.255       .  A
O76         Al84   1.876       .  S
O77          C86   1.263       .  A
O77         Al84   1.913       .  S
O78         Al84   1.926       .  S
O79          C86   1.266       .  A
O80         Al84   1.782       .  S
O81          C82   1.265       .  A
C82         C135   1.438       .  S
C83         C144   1.430       .  S
C86         C140   1.452   1_556  S
C87          O88   1.252       .  A
C87         C478   1.431   1_455  S
O89         C104   1.266       .  A
O89         Al97   1.925   1_556  S
C90         O100   1.265       .  A
C90          O91   1.263       .  A
C90         C164   1.437       .  S
O91         Al93   1.905       .  S
O92          C94   1.264       .  A
O92         Al93   1.934       .  S
Al93        O101   1.941       .  S
Al93        O103   1.908   1_554  S
Al93        O102   1.779       .  S
C94         O107   1.252       .  A
C94         C141   1.435       .  S
O95         C105   1.263       .  A
O95         Al97   1.930       .  S
O96         C277   1.265   1_545  A
O96        Al106   1.938       .  S
Al97        O110   1.870   1_554  S
Al97        O107   1.884       .  S
Al97        O102   1.781       .  S
O98         C105   1.255       .  A
O98        Al106   1.876       .  S
O99         C108   1.263       .  A
O99        Al106   1.913       .  S
O100       Al106   1.926       .  S
O101        C108   1.266       .  A
O102       Al106   1.782       .  S
O103        C104   1.265       .  A
C104        C146   1.438       .  S
C105        C133   1.430       .  S
C108        C139   1.452       .  S
C109        O264   1.265       .  A
C109        O278   1.252   1_554  A
C109        C137   1.431   1_554  S
O110        C277   1.252   1_546  A
O111        C126   1.266       .  A
O111       Al119   1.925       .  S
C112        O122   1.265       .  A
C112        O113   1.263       .  A
C112        C136   1.437       .  S
O113       Al115   1.905       .  S
O114        C116   1.264       .  A
O114       Al115   1.934       .  S
Al115       O123   1.941       .  S
Al115       O125   1.908       .  S
Al115       O124   1.779       .  S
C116        O129   1.252       .  A
C116        C159   1.435       .  S
O117        C127   1.263       .  A
O117       Al119   1.930       .  S
O118        C131   1.265       .  A
O118       Al128   1.938       .  S
Al119       O132   1.870       .  S
Al119       O129   1.884       .  S
Al119       O124   1.781       .  S
O120        C127   1.255       .  A
O120       Al128   1.876       .  S
O121        C130   1.263       .  A
O121       Al128   1.913       .  S
O122       Al128   1.926       .  S
O123        C130   1.266       .  A
O124       Al128   1.782       .  S
O125        C126   1.265       .  A
C126        C155   1.438       .  S
C127        C134   1.430       .  S
C130        C157   1.452       .  S
C131        O132   1.252       .  A
C131        C330   1.431       .  S
C133        C302   1.203   1_545  T
C134        C301   1.203       .  T
C135        C136   1.207       .  T
C137        C138   1.205       .  T
C139        C140   1.215       .  T
C141        C142   1.205       .  T
C142        C423   1.431       .  S
C143        C480   1.203       .  T
C144        C479   1.203   1_455  T
C145        C146   1.207       .  T
C147        C148   1.207       .  T
C149        C150   1.205       .  T
C151        C320   1.215   1_545  T
C152        C319   1.215       .  T
C153        C154   1.205       .  T
C155        C156   1.207       .  T
C157        C494   1.216   1_455  T
C158        C493   1.216       .  T
C159        C160   1.205       .  T
C161        C162   1.205       .  T
C162        C299   1.431   1_545  S
C163        C164   1.207       .  T
C165        C166   1.203       .  T
C167        C168   1.207       .  T
O169        C184   1.266       .  A
O169       Al177   1.925       .  S
C170        O180   1.265       .  A
C170        O171   1.263       .  A
C170        C335   1.437       .  S
O171       Al173   1.905       .  S
O172        C174   1.264       .  A
O172       Al173   1.934       .  S
Al173       O181   1.941       .  S
Al173       O183   1.908       .  S
Al173       O182   1.779       .  S
C174        O187   1.252       .  A
C174        C329   1.435       .  S
O175        C185   1.263       .  A
O175       Al177   1.930       .  S
O176        C189   1.265       .  A
O176       Al186   1.938       .  S
Al177       O190   1.870       .  S
Al177       O187   1.884       .  S
Al177       O182   1.781       .  S
O178        C185   1.255       .  A
O178       Al186   1.876       .  S
O179        C188   1.263       .  A
O179       Al186   1.913       .  S
O180       Al186   1.926       .  S
O181        C188   1.266       .  A
O182       Al186   1.782       .  S
O183        C184   1.265       .  A
C184        C331   1.438       .  S
C185        C333   1.430       .  S
C188        C326   1.452       .  S
C189        O190   1.252       .  A
C189        C328   1.431       .  S
O191        C206   1.266       .  A
O191       Al199   1.925       .  S
C192        O202   1.265       .  A
C192        O193   1.263       .  A
C192        C324   1.437       .  S
O193       Al195   1.905       .  S
O194        C196   1.264       .  A
O194       Al195   1.934       .  S
Al195       O203   1.941       .  S
Al195       O205   1.908       .  S
Al195       O204   1.779       .  S
C196        O209   1.252       .  A
C196        C318   1.435       .  S
O197        C207   1.263       .  A
O197       Al199   1.930       .  S
O198        C211   1.265       .  A
O198       Al208   1.938       .  S
Al199       O212   1.870       .  S
Al199       O209   1.884       .  S
Al199       O204   1.781       .  S
O200        C207   1.255       .  A
O200       Al208   1.876       .  S
O201        C210   1.263       .  A
O201       Al208   1.913       .  S
O202       Al208   1.926       .  S
O203        C210   1.266       .  A
O204       Al208   1.782       .  S
O205        C206   1.265       .  A
C206        C316   1.438       .  S
C207        C334   1.430       .  S
C210        C320   1.452       .  S
C211        O212   1.252       .  A
C211        C322   1.431       .  S
O213        C228   1.266       .  A
O213       Al221   1.925       .  S
C214        O224   1.265       .  A
C214        O215   1.263       .  A
C214        C313   1.437       .  S
O215       Al217   1.905       .  S
O216        C218   1.264       .  A
O216       Al217   1.935       .  S
Al217       O225   1.941       .  S
Al217       O227   1.908       .  S
Al217       O226   1.779       .  S
C218        O231   1.252       .  A
C218        C321   1.435       .  S
O219        C229   1.263       .  A
O219       Al221   1.930       .  S
O220        C569   1.265       .  A
O220       Al230   1.938       .  S
Al221       O234   1.870       .  S
Al221       O231   1.884       .  S
Al221       O226   1.781       .  S
O222        C229   1.255       .  A
O222       Al230   1.876       .  S
O223        C232   1.263       .  A
O223       Al230   1.913       .  S
O224       Al230   1.926       .  S
O225        C232   1.266       .  A
O226       Al230   1.782       .  S
O227        C228   1.265       .  A
C228        C336   1.438       .  S
C229        C311   1.430       .  S
C232        C319   1.452       .  S
C233        O556   1.265   1_455  A
C233        O570   1.252   1_455  A
C233        C317   1.431       .  S
O234        C569   1.252       .  A
O235        C250   1.266       .  A
O235       Al243   1.925       .  S
C236        O246   1.265       .  A
C236        O237   1.263       .  A
C236        C315   1.437       .  S
O237       Al239   1.905       .  S
O238        C240   1.264   1_554  A
O238       Al239   1.934   1_554  S
Al239       O247   1.941       .  S
Al239       O249   1.908   1_556  S
Al239       O248   1.779       .  S
C240        O253   1.252       .  A
C240        C306   1.435       .  S
O241        C251   1.263       .  A
O241       Al243   1.930   1_556  S
O242        C255   1.265   1_556  A
O242       Al252   1.938       .  S
Al243       O256   1.870       .  S
Al243       O253   1.884   1_554  S
Al243       O248   1.781   1_554  S
O244        C251   1.255       .  A
O244       Al252   1.876       .  S
O245        C254   1.263       .  A
O245       Al252   1.913       .  S
O246       Al252   1.926       .  S
O247        C254   1.266       .  A
O248       Al252   1.782       .  S
O249        C250   1.265       .  A
C250        C303   1.438       .  S
C251        C312   1.430       .  S
C254        C308   1.452   1_556  S
C255        O256   1.252       .  A
C255        C646   1.431   1_455  S
O257        C272   1.266       .  A
O257       Al265   1.925   1_556  S
C258        O268   1.265       .  A
C258        O259   1.263       .  A
C258        C332   1.437       .  S
O259       Al261   1.905       .  S
O260        C262   1.264       .  A
O260       Al261   1.934       .  S
Al261       O269   1.941       .  S
Al261       O271   1.908   1_554  S
Al261       O270   1.779       .  S
C262        O275   1.252       .  A
C262        C309   1.435       .  S
O263        C273   1.263       .  A
O263       Al265   1.930       .  S
O264       Al274   1.938       .  S
Al265       O278   1.870   1_554  S
Al265       O275   1.884       .  S
Al265       O270   1.781       .  S
O266        C273   1.255       .  A
O266       Al274   1.876       .  S
O267        C276   1.263       .  A
O267       Al274   1.913       .  S
O268       Al274   1.926       .  S
O269        C276   1.266       .  A
O270       Al274   1.782       .  S
O271        C272   1.265       .  A
C272        C314   1.438       .  S
C273        C301   1.430       .  S
C276        C307   1.452       .  S
C277        C305   1.431   1_554  S
O279        C294   1.266       .  A
O279       Al287   1.925       .  S
C280        O290   1.265       .  A
C280        O281   1.263       .  A
C280        C304   1.437       .  S
O281       Al283   1.905       .  S
O282        C284   1.264       .  A
O282       Al283   1.934       .  S
Al283       O291   1.941       .  S
Al283       O293   1.908       .  S
Al283       O292   1.779       .  S
C284        O297   1.252       .  A
C284        C327   1.435       .  S
O285        C295   1.263       .  A
O285       Al287   1.930       .  S
O286        C299   1.265       .  A
O286       Al296   1.938       .  S
Al287       O300   1.870       .  S
Al287       O297   1.884       .  S
Al287       O292   1.781       .  S
O288        C295   1.255       .  A
O288       Al296   1.876       .  S
O289        C298   1.263       .  A
O289       Al296   1.913       .  S
O290       Al296   1.926       .  S
O291        C298   1.266       .  A
O292       Al296   1.782       .  S
O293        C294   1.265       .  A
C294        C323   1.438       .  S
C295        C302   1.430       .  S
C298        C325   1.452       .  S
C299        O300   1.252       .  A
C303        C304   1.207       .  T
C305        C306   1.205       .  T
C307        C308   1.215       .  T
C309        C310   1.205       .  T
C310        C591   1.431       .  S
C311        C648   1.203       .  T
C312        C647   1.203   1_455  T
C313        C314   1.207       .  T
C315        C316   1.207       .  T
C317        C318   1.205       .  T
C321        C322   1.205       .  T
C323        C324   1.207       .  T
C325        C662   1.216   1_455  T
C326        C661   1.216       .  T
C327        C328   1.205       .  T
C329        C330   1.205       .  T
C331        C332   1.207       .  T
C333        C334   1.203       .  T
C335        C336   1.207       .  T
O337        C352   1.266       .  A
O337       Al345   1.925       .  S
C338        O348   1.265       .  A
C338        O339   1.263       .  A
C338        C503   1.437       .  S
O339       Al341   1.905       .  S
O340        C342   1.264       .  A
O340       Al341   1.934       .  S
Al341       O349   1.941       .  S
Al341       O351   1.908       .  S
Al341       O350   1.779       .  S
C342        O355   1.252       .  A
C342        C497   1.435       .  S
O343        C353   1.263       .  A
O343       Al345   1.930       .  S
O344        C357   1.265       .  A
O344       Al354   1.938       .  S
Al345       O358   1.870       .  S
Al345       O355   1.884       .  S
Al345       O350   1.781       .  S
O346        C353   1.255       .  A
O346       Al354   1.876       .  S
O347        C356   1.263       .  A
O347       Al354   1.913       .  S
O348       Al354   1.926       .  S
O349        C356   1.266       .  A
O350       Al354   1.782       .  S
O351        C352   1.265       .  A
C352        C499   1.438       .  S
C353        C501   1.430       .  S
C356        C494   1.452       .  S
C357        O358   1.252       .  A
C357        C496   1.431       .  S
O359        C374   1.266       .  A
O359       Al367   1.925       .  S
C360        O370   1.265       .  A
C360        O361   1.263       .  A
C360        C492   1.437       .  S
O361       Al363   1.905       .  S
O362        C364   1.264       .  A
O362       Al363   1.934       .  S
Al363       O371   1.941       .  S
Al363       O373   1.908       .  S
Al363       O372   1.779       .  S
C364        O377   1.252       .  A
C364        C486   1.435       .  S
O365        C375   1.263       .  A
O365       Al367   1.930       .  S
O366        C379   1.265       .  A
O366       Al376   1.938       .  S
Al367       O380   1.870       .  S
Al367       O377   1.884       .  S
Al367       O372   1.781       .  S
O368        C375   1.255       .  A
O368       Al376   1.876       .  S
O369        C378   1.263       .  A
O369       Al376   1.913       .  S
O370       Al376   1.926       .  S
O371        C378   1.266       .  A
O372       Al376   1.782       .  S
O373        C374   1.265       .  A
C374        C484   1.438       .  S
C375        C502   1.430       .  S
C378        C488   1.452       .  S
C379        O380   1.252       .  A
C379        C490   1.431       .  S
O381        C396   1.266       .  A
O381       Al389   1.925       .  S
C382        O392   1.265       .  A
C382        O383   1.263       .  A
C382        C481   1.437       .  S
O383       Al385   1.905       .  S
O384        C386   1.264       .  A
O384       Al385   1.935       .  S
Al385       O393   1.941       .  S
Al385       O395   1.908       .  S
Al385       O394   1.779       .  S
C386        O399   1.252       .  A
C386        C489   1.435       .  S
O387        C397   1.263       .  A
O387       Al389   1.930       .  S
O388       Al398   1.938       .  S
Al389       O402   1.870       .  S
Al389       O399   1.884       .  S
Al389       O394   1.781       .  S
O390        C397   1.255       .  A
O390       Al398   1.876       .  S
O391        C400   1.263       .  A
O391       Al398   1.913       .  S
O392       Al398   1.926       .  S
O393        C400   1.266       .  A
O394       Al398   1.782       .  S
O395        C396   1.265       .  A
C396        C504   1.438       .  S
C397        C479   1.430       .  S
C400        C487   1.452       .  S
C401        C485   1.431       .  S
O403        C418   1.266       .  A
O403       Al411   1.925       .  S
C404        O414   1.265       .  A
C404        O405   1.263       .  A
C404        C483   1.437       .  S
O405       Al407   1.905       .  S
O406        C408   1.264   1_554  A
O406       Al407   1.934   1_554  S
Al407       O415   1.941       .  S
Al407       O417   1.908   1_556  S
Al407       O416   1.779       .  S
C408        O421   1.252       .  A
C408        C474   1.435       .  S
O409        C419   1.263       .  A
O409       Al411   1.930   1_556  S
O410        C423   1.265   1_556  A
O410       Al420   1.938       .  S
Al411       O424   1.870       .  S
Al411       O421   1.884   1_554  S
Al411       O416   1.781   1_554  S
O412        C419   1.255       .  A
O412       Al420   1.876       .  S
O413        C422   1.263       .  A
O413       Al420   1.913       .  S
O414       Al420   1.926       .  S
O415        C422   1.266       .  A
O416       Al420   1.782       .  S
O417        C418   1.265       .  A
C418        C471   1.438       .  S
C419        C480   1.430       .  S
C422        C476   1.452   1_556  S
C423        O424   1.252       .  A
O425        C440   1.266       .  A
O425       Al433   1.925   1_556  S
C426        O436   1.265       .  A
C426        O427   1.263       .  A
C426        C500   1.437       .  S
O427       Al429   1.905       .  S
O428        C430   1.264       .  A
O428       Al429   1.934       .  S
Al429       O437   1.941       .  S
Al429       O439   1.908   1_554  S
Al429       O438   1.779       .  S
C430        O443   1.252       .  A
C430        C477   1.435       .  S
O431        C441   1.263       .  A
O431       Al433   1.930       .  S
O432        C613   1.265   1_545  A
O432       Al442   1.938       .  S
Al433       O446   1.870   1_554  S
Al433       O443   1.884       .  S
Al433       O438   1.781       .  S
O434        C441   1.255       .  A
O434       Al442   1.876       .  S
O435        C444   1.263       .  A
O435       Al442   1.913       .  S
O436       Al442   1.926       .  S
O437        C444   1.266       .  A
O438       Al442   1.782       .  S
O439        C440   1.265       .  A
C440        C482   1.438       .  S
C441        C469   1.430       .  S
C444        C475   1.452       .  S
C445        O600   1.265       .  A
C445        O614   1.252   1_554  A
C445        C473   1.431   1_554  S
O446        C613   1.252   1_546  A
O447        C462   1.266       .  A
O447       Al455   1.925       .  S
C448        O458   1.265       .  A
C448        O449   1.263       .  A
C448        C472   1.437       .  S
O449       Al451   1.905       .  S
O450        C452   1.264       .  A
O450       Al451   1.934       .  S
Al451       O459   1.941       .  S
Al451       O461   1.908       .  S
Al451       O460   1.779       .  S
C452        O465   1.252       .  A
C452        C495   1.435       .  S
O453        C463   1.263       .  A
O453       Al455   1.930       .  S
O454        C467   1.265       .  A
O454       Al464   1.938       .  S
Al455       O468   1.870       .  S
Al455       O465   1.884       .  S
Al455       O460   1.781       .  S
O456        C463   1.255       .  A
O456       Al464   1.876       .  S
O457        C466   1.263       .  A
O457       Al464   1.913       .  S
O458       Al464   1.926       .  S
O459        C466   1.266       .  A
O460       Al464   1.782       .  S
O461        C462   1.265       .  A
C462        C491   1.438       .  S
C463        C470   1.430       .  S
C466        C493   1.452       .  S
C467        O468   1.252       .  A
C467        C666   1.431       .  S
C469        C638   1.203   1_545  T
C470        C637   1.203       .  T
C471        C472   1.207       .  T
C473        C474   1.205       .  T
C475        C476   1.215       .  T
C477        C478   1.205       .  T
C481        C482   1.207       .  T
C483        C484   1.207       .  T
C485        C486   1.205       .  T
C487        C656   1.215   1_545  T
C488        C655   1.215       .  T
C489        C490   1.205       .  T
C491        C492   1.207       .  T
C495        C496   1.205       .  T
C497        C498   1.205       .  T
C498        C635   1.431   1_545  S
C499        C500   1.207       .  T
C501        C502   1.203       .  T
C503        C504   1.207       .  T
O505        C520   1.266       .  A
O505       Al513   1.925       .  S
C506        O516   1.265       .  A
C506        O507   1.263       .  A
C506        C671   1.437       .  S
O507       Al509   1.905       .  S
O508        C510   1.264       .  A
O508       Al509   1.934       .  S
Al509       O517   1.941       .  S
Al509       O519   1.908       .  S
Al509       O518   1.779       .  S
C510        O523   1.252       .  A
C510        C665   1.435       .  S
O511        C521   1.263       .  A
O511       Al513   1.930       .  S
O512        C525   1.265       .  A
O512       Al522   1.938       .  S
Al513       O526   1.870       .  S
Al513       O523   1.884       .  S
Al513       O518   1.781       .  S
O514        C521   1.255       .  A
O514       Al522   1.876       .  S
O515        C524   1.263       .  A
O515       Al522   1.913       .  S
O516       Al522   1.926       .  S
O517        C524   1.266       .  A
O518       Al522   1.782       .  S
O519        C520   1.265       .  A
C520        C667   1.438       .  S
C521        C669   1.430       .  S
C524        C662   1.452       .  S
C525        O526   1.252       .  A
C525        C664   1.431       .  S
O527        C542   1.266       .  A
O527       Al535   1.925       .  S
C528        O538   1.265       .  A
C528        O529   1.263       .  A
C528        C660   1.437       .  S
O529       Al531   1.905       .  S
O530        C532   1.264       .  A
O530       Al531   1.934       .  S
Al531       O539   1.941       .  S
Al531       O541   1.908       .  S
Al531       O540   1.779       .  S
C532        O545   1.252       .  A
C532        C654   1.435       .  S
O533        C543   1.263       .  A
O533       Al535   1.930       .  S
O534        C547   1.265       .  A
O534       Al544   1.938       .  S
Al535       O548   1.870       .  S
Al535       O545   1.884       .  S
Al535       O540   1.781       .  S
O536        C543   1.255       .  A
O536       Al544   1.876       .  S
O537        C546   1.263       .  A
O537       Al544   1.913       .  S
O538       Al544   1.926       .  S
O539        C546   1.266       .  A
O540       Al544   1.782       .  S
O541        C542   1.265       .  A
C542        C652   1.438       .  S
C543        C670   1.430       .  S
C546        C656   1.452       .  S
C547        O548   1.252       .  A
C547        C658   1.431       .  S
O549        C564   1.266       .  A
O549       Al557   1.925       .  S
C550        O560   1.265       .  A
C550        O551   1.263       .  A
C550        C649   1.437       .  S
O551       Al553   1.905       .  S
O552        C554   1.264       .  A
O552       Al553   1.935       .  S
Al553       O561   1.941       .  S
Al553       O563   1.908       .  S
Al553       O562   1.779       .  S
C554        O567   1.252       .  A
C554        C657   1.435       .  S
O555        C565   1.263       .  A
O555       Al557   1.930       .  S
O556       Al566   1.938       .  S
Al557       O570   1.870       .  S
Al557       O567   1.884       .  S
Al557       O562   1.781       .  S
O558        C565   1.255       .  A
O558       Al566   1.876       .  S
O559        C568   1.263       .  A
O559       Al566   1.913       .  S
O560       Al566   1.926       .  S
O561        C568   1.266       .  A
O562       Al566   1.782       .  S
O563        C564   1.265       .  A
C564        C672   1.438       .  S
C565        C647   1.430       .  S
C568        C655   1.452       .  S
C569        C653   1.431       .  S
O571        C586   1.266       .  A
O571       Al579   1.925       .  S
C572        O582   1.265       .  A
C572        O573   1.263       .  A
C572        C651   1.437       .  S
O573       Al575   1.905       .  S
O574        C576   1.264   1_554  A
O574       Al575   1.934   1_554  S
Al575       O583   1.941       .  S
Al575       O585   1.908   1_556  S
Al575       O584   1.779       .  S
C576        O589   1.252       .  A
C576        C642   1.435       .  S
O577        C587   1.263       .  A
O577       Al579   1.930   1_556  S
O578        C591   1.265   1_556  A
O578       Al588   1.938       .  S
Al579       O592   1.870       .  S
Al579       O589   1.884   1_554  S
Al579       O584   1.781   1_554  S
O580        C587   1.255       .  A
O580       Al588   1.876       .  S
O581        C590   1.263       .  A
O581       Al588   1.913       .  S
O582       Al588   1.926       .  S
O583        C590   1.266       .  A
O584       Al588   1.782       .  S
O585        C586   1.265       .  A
C586        C639   1.438       .  S
C587        C648   1.430       .  S
C590        C644   1.452   1_556  S
C591        O592   1.252       .  A
O593        C608   1.266       .  A
O593       Al601   1.925   1_556  S
C594        O604   1.265       .  A
C594        O595   1.263       .  A
C594        C668   1.437       .  S
O595       Al597   1.905       .  S
O596        C598   1.264       .  A
O596       Al597   1.934       .  S
Al597       O605   1.941       .  S
Al597       O607   1.908   1_554  S
Al597       O606   1.779       .  S
C598        O611   1.252       .  A
C598        C645   1.435       .  S
O599        C609   1.263       .  A
O599       Al601   1.930       .  S
O600       Al610   1.938       .  S
Al601       O614   1.870   1_554  S
Al601       O611   1.884       .  S
Al601       O606   1.781       .  S
O602        C609   1.255       .  A
O602       Al610   1.876       .  S
O603        C612   1.263       .  A
O603       Al610   1.913       .  S
O604       Al610   1.926       .  S
O605        C612   1.266       .  A
O606       Al610   1.782       .  S
O607        C608   1.265       .  A
C608        C650   1.438       .  S
C609        C637   1.430       .  S
C612        C643   1.452       .  S
C613        C641   1.431   1_554  S
O615        C630   1.266       .  A
O615       Al623   1.925       .  S
C616        O626   1.265       .  A
C616        O617   1.263       .  A
C616        C640   1.437       .  S
O617       Al619   1.905       .  S
O618        C620   1.264       .  A
O618       Al619   1.934       .  S
Al619       O627   1.941       .  S
Al619       O629   1.908       .  S
Al619       O628   1.779       .  S
C620        O633   1.252       .  A
C620        C663   1.435       .  S
O621        C631   1.263       .  A
O621       Al623   1.930       .  S
O622        C635   1.265       .  A
O622       Al632   1.938       .  S
Al623       O636   1.870       .  S
Al623       O633   1.884       .  S
Al623       O628   1.781       .  S
O624        C631   1.255       .  A
O624       Al632   1.876       .  S
O625        C634   1.263       .  A
O625       Al632   1.913       .  S
O626       Al632   1.926       .  S
O627        C634   1.266       .  A
O628       Al632   1.782       .  S
O629        C630   1.265       .  A
C630        C659   1.438       .  S
C631        C638   1.430       .  S
C634        C661   1.452       .  S
C635        O636   1.252       .  A
C639        C640   1.207       .  T
C641        C642   1.205       .  T
C643        C644   1.215       .  T
C645        C646   1.205       .  T
C649        C650   1.207       .  T
C651        C652   1.207       .  T
C653        C654   1.205       .  T
C657        C658   1.205       .  T
C659        C660   1.207       .  T
C663        C664   1.205       .  T
C665        C666   1.205       .  T
C667        C668   1.207       .  T
C669        C670   1.203       .  T
C671        C672   1.207       .  T
