geometry optimzed in LAMMPS
_audit_creation_date              2020-12-01 
_audit_creation_method            'lammps2cif' 
_symmetry_space_group_name_H-M    'P1' 
_symmetry_Int_Tables_number       1 
_symmetry_cell_setting            triclinic 
loop_ 
_symmetry_equiv_pos_as_xyz 
  x,y,z 
_cell_length_a                    55.90287238 
_cell_length_b                    55.9040925223943 
_cell_length_c                    56.390508180203604 
_cell_angle_alpha                 89.99926100549602 
_cell_angle_beta                  89.87174618880917 
_cell_angle_gamma                 121.01463926563677 
loop_ 
_atom_site_label 
_atom_site_type_symbol 
_atom_site_fract_x 
_atom_site_fract_y 
_atom_site_fract_z 
_atom_site_charge 
O1          O  0.65798854  0.19031278  0.19824002    -0.81300
C2          C  0.55197507  0.13131841  0.24285365     0.98100
O3          O  0.57047216  0.15667966  0.24518034    -0.70400
O4          O  0.61871947  0.16519742  0.25977156    -0.74000
Al5        Al  0.60772399  0.17917550  0.23405402     1.49000
C6          C  0.64104724  0.16475362  0.26008991     0.93300
O7          O  0.61895268  0.11475768  0.21956853    -0.80200
O8          O  0.59271060  0.14374784  0.16869979    -0.73800
Al9        Al  0.63708577  0.15249846  0.20918491     1.90100
O10         O  0.58029817  0.10001853  0.19935888    -0.72900
O11         O  0.56290437  0.15813973  0.19461215    -0.72700
O12         O  0.55341748  0.11665282  0.22660976    -0.78400
O13         O  0.59707482  0.19587497  0.21074463    -0.76600
O14         O  0.60647776  0.15425863  0.21398690    -1.12700
O15         O  0.64533187  0.20763196  0.22719968    -0.71900
C16         C  0.66119091  0.21105642  0.20991911     0.98800
C17         C  0.59611701  0.09494961  0.21173643     0.95200
Al18       Al  0.57502113  0.13145532  0.19845459     1.55600
O19         O  0.65164720  0.16301252  0.24083059    -0.76500
C20         C  0.57502190  0.18409422  0.19863480     0.99400
C21         C  0.61431344  0.14409406  0.16174070     0.94300
O22         O  0.62997296  0.14188528  0.17652348    -0.81800
O23         O  0.81925077  0.33219544  0.47528507    -0.81300
C24         C  0.75459995  0.26422624  0.39938982     0.98100
O25         O  0.75760136  0.25559846  0.41942524    -0.70400
O26         O  0.80755054  0.27399515  0.43733650    -0.74000
Al27       Al  0.77581935  0.27407687  0.44871646     1.49000
C28         C  0.83275011  0.29252413  0.43440152     0.93300
O29         O  0.82840326  0.34758431  0.40958594    -0.80200
O30         O  0.76269940  0.33731544  0.44406411    -0.73800
Al31       Al  0.82116396  0.33768231  0.44231683     1.90100
O32         O  0.78847732  0.34371606  0.40219820    -0.72900
O33         O  0.72902321  0.28468125  0.43432562    -0.72700
O34         O  0.76062195  0.28918509  0.39660843    -0.78400
O35         O  0.74161571  0.26730445  0.46260883    -0.76600
O36         O  0.78669259  0.30820169  0.43742325    -1.12700
O37         O  0.79159000  0.28694177  0.47957593    -0.71900
C38         C  0.80713897  0.31091681  0.48833886     0.98800
C39         C  0.81349725  0.35310340  0.39680423     0.95200
Al40       Al  0.76257392  0.31328923  0.42088321     1.55600
O41         O  0.84066291  0.31795859  0.43714326    -0.76500
C42         C  0.72303097  0.26968150  0.45238501     0.99400
C43         C  0.78371682  0.35961202  0.45137910     0.94300
O44         O  0.80819176  0.36374285  0.44864408    -0.81800
O45         O  0.63891988  0.50874377  0.47785389    -0.81300
C46         C  0.70382137  0.51608953  0.39979311     0.98100
O47         O  0.71391462  0.52666101  0.42004396    -0.70400
O48         O  0.69784372  0.55796069  0.44112565    -0.74000
Al49       Al  0.69660317  0.52496762  0.45054069     1.49000
C50         C  0.67985528  0.56491422  0.43927759     0.93300
O51         O  0.62482231  0.50605042  0.41199042    -0.80200
O52         O  0.63291724  0.44803338  0.44594994    -0.73800
Al53       Al  0.63372212  0.50697236  0.44497878     1.90100
O54         O  0.62400596  0.46744914  0.40495384    -0.72900
O55         O  0.68541414  0.46856124  0.43244370    -0.72700
O56         O  0.67864336  0.49645636  0.39756658    -0.78400
O57         O  0.70249389  0.49619581  0.46252049    -0.76600
O58         O  0.66228525  0.50197543  0.43938813    -1.12700
O59         O  0.68413066  0.52648262  0.48211366    -0.71900
C60         C  0.66006629  0.51746360  0.49087179     0.98800
C61         C  0.61752065  0.48501695  0.39912033     0.95200
Al62       Al  0.65584056  0.47278963  0.42193142     1.55600
O63         O  0.65430444  0.54686669  0.44160912    -0.76500
C64         C  0.70130621  0.47705903  0.44995092     0.99400
C65         C  0.61086152  0.44687329  0.45313180     0.94300
O66         O  0.60703320  0.46724077  0.45000622    -0.81800
O67         O  0.47710529  0.30600164  0.20366961    -0.81300
C68         C  0.53563561  0.41031764  0.24400809     0.98100
O69         O  0.53181061  0.38626995  0.24753855    -0.70400
O70         O  0.50261459  0.33159394  0.24668736    -0.74000
Al71       Al  0.52613786  0.35938224  0.22464404     1.49000
C72         C  0.47848210  0.32333717  0.25431162     0.93300
O73         O  0.44537237  0.35228437  0.21310937    -0.80200
O74         O  0.48893440  0.37916976  0.16800154    -0.73800
Al75       Al  0.46494845  0.33266900  0.20861069     1.90100
O76         O  0.47834279  0.39591300  0.21072414    -0.72900
O77         O  0.54124267  0.40191717  0.18045231    -0.72700
O78         O  0.52968730  0.41704432  0.22432208    -0.78400
O79         O  0.55715649  0.38589927  0.20725069    -0.76600
O80         O  0.49980278  0.36270645  0.20994469    -1.12700
O81         O  0.52289904  0.33261999  0.20270272    -0.71900
C82         C  0.50092823  0.30952975  0.19886953     0.98800
C83         C  0.45344283  0.37777772  0.21514220     0.95200
Al84       Al  0.50853720  0.39549840  0.19700156     1.55600
O85         O  0.46198963  0.32721844  0.24207288    -0.76500
C86         C  0.56086848  0.39989411  0.18888111     0.99400
C87         C  0.47282191  0.35432918  0.16108169     0.94300
O88         O  0.46309675  0.33418663  0.17542187    -0.81800
O89         O  0.46186066  0.15183751  0.47068783    -0.81300
C90         C  0.45459486  0.21679031  0.39851339     0.98100
O91         O  0.44554382  0.21551373  0.41940647    -0.70400
O92         O  0.41297946  0.16447919  0.43246270    -0.74000
Al93       Al  0.44466411  0.19368745  0.44660281     1.49000
C94         C  0.40476912  0.13905660  0.43075666     0.93300
O95         O  0.45874763  0.14083302  0.40436523    -0.80200
O96         O  0.52127291  0.20544716  0.43716568    -0.73800
Al97       Al  0.46056225  0.14834130  0.43760947     1.90100
O98         O  0.49620968  0.18039393  0.39552162    -0.72900
O99         O  0.50276232  0.23968029  0.43233152    -0.72700
O100        O  0.47251185  0.21001566  0.39429163    -0.78400
O101        O  0.47388152  0.22547810  0.46223313    -0.76600
O102        O  0.46692901  0.18294085  0.43366554    -1.12700
O103        O  0.43948401  0.17408909  0.47623104    -0.71900
C104        C  0.45119910  0.16157831  0.48443689     0.98800
C105        C  0.47811251  0.15569631  0.39002020     0.95200
Al106      Al  0.49578912  0.20689611  0.41633407     1.55600
O107        O  0.42034726  0.12983091  0.43655334    -0.76500
C108        C  0.49476367  0.24466496  0.45159643     0.99400
C109        C  0.52154250  0.18361947  0.44229824     0.94300
O110        O  0.49993958  0.15963494  0.43950593    -0.81800
O111        O  0.78187953  0.49669433  0.19347468    -0.81300
C112        C  0.82864640  0.44436067  0.24629381     0.98100
O113        O  0.80304222  0.43658442  0.24505189    -0.70400
O114        O  0.79377099  0.47624822  0.25723132    -0.74000
Al115      Al  0.78345235  0.45245360  0.23053633     1.49000
C116        C  0.79638652  0.49999541  0.25711568     0.93300
O117        O  0.85299034  0.52822017  0.22273759    -0.80200
O118        O  0.82716529  0.47381534  0.17007139    -0.73800
Al119      Al  0.81731335  0.51088360  0.20827588     1.90100
O120        O  0.86789750  0.50481629  0.20261452    -0.72900
O121        O  0.80899563  0.42879829  0.19671574    -0.72700
O122        O  0.84607329  0.46146131  0.23151074    -0.78400
O123        O  0.76952560  0.42559189  0.20593558    -0.76600
O124        O  0.81204719  0.47708432  0.21337743    -1.12700
O125        O  0.75817790  0.46343138  0.21955001    -0.71900
C126        C  0.75897845  0.47902181  0.20291311     0.98800
C127        C  0.87260878  0.52491375  0.21594498     0.95200
Al128      Al  0.83569498  0.46804981  0.20109157     1.55600
O129        O  0.80291853  0.51411144  0.23819604    -0.76500
C130        C  0.78263117  0.41495525  0.19706622     0.99400
C131        C  0.82938090  0.49617745  0.16258197     0.94300
O132        O  0.83232993  0.51483166  0.17698942    -0.81800
O133        O  0.50164106  0.35112694  0.94284387    -0.81300
C134        C  0.44860733  0.24576055  0.90371653     0.98100
O135        O  0.46770227  0.27027900  0.89862551    -0.70400
O136        O  0.49570115  0.32478692  0.89829909    -0.74000
Al137      Al  0.49272207  0.29724812  0.92008471     1.49000
C138        C  0.47947896  0.33334695  0.89321883     0.93300
O139        O  0.42181595  0.30502426  0.93906900    -0.80200
O140        O  0.43876457  0.27865363  0.98085435    -0.73800
Al141      Al  0.46171362  0.32473867  0.94063316     1.90100
O142        O  0.40932333  0.26090942  0.93894518    -0.72900
O143        O  0.46920635  0.25752780  0.96687653    -0.72700
O144        O  0.43899004  0.23920831  0.92468165    -0.78400
O145        O  0.49754713  0.27053138  0.93666746    -0.76600
O146        O  0.46499173  0.29458600  0.93763924    -1.12700
O147        O  0.51993793  0.32448177  0.94039397    -0.71900
C148        C  0.52206324  0.34746026  0.94554311     0.98800
C149        C  0.40340255  0.27964883  0.93648418     0.95200
Al150      Al  0.44104872  0.26199011  0.95166091     1.55600
O151        O  0.46085988  0.33000415  0.90760678    -0.76500
C152        C  0.48959007  0.25849344  0.95640942     0.99400
C153        C  0.44956174  0.30360572  0.98797059     0.94300
O154        O  0.46167279  0.32369930  0.97374876    -0.81800
O155        O  0.64455838  0.51017837  0.68071065    -0.81300
C156        C  0.57125439  0.45053778  0.75627833     0.98100
O157        O  0.56440353  0.45073730  0.73493510    -0.70400
O158        O  0.58394304  0.50094878  0.71810800    -0.74000
Al159      Al  0.58562785  0.47014666  0.70711776     1.49000
C160        C  0.60173433  0.52668083  0.71875398     0.93300
O161        O  0.65734659  0.52826773  0.74539253    -0.80200
O162        O  0.65019076  0.45919398  0.72155122    -0.73800
Al163      Al  0.64851218  0.51638639  0.71349001     1.90100
O164        O  0.65157394  0.48965050  0.76024367    -0.72900
O165        O  0.59653876  0.42594985  0.72674515    -0.72700
O166        O  0.59642939  0.45972457  0.76175826    -0.78400
O167        O  0.58240426  0.43675355  0.69460680    -0.76600
O168        O  0.61924357  0.48251047  0.72035055    -1.12700
O169        O  0.59928782  0.48663553  0.67641539    -0.71900
C170        C  0.62346940  0.49962185  0.66754491     0.98800
C171        C  0.66131166  0.51554339  0.76172048     0.95200
Al172      Al  0.62337529  0.46065107  0.74077861     1.55600
O173        O  0.62719092  0.53531011  0.71416109    -0.76500
C174        C  0.58366424  0.41883146  0.70726812     0.99400
C175        C  0.67226229  0.47932202  0.71300266     0.94300
O176        O  0.67555192  0.50363594  0.71184300    -0.81800
O177        O  0.46616895  0.15532252  0.67409913    -0.81300
C178        C  0.52905572  0.14368117  0.74586948     0.98100
O179        O  0.52806848  0.13574575  0.72457629    -0.70400
O180        O  0.47703255  0.10347021  0.70949923    -0.74000
Al181      Al  0.50708227  0.13641918  0.69731623     1.49000
C182        C  0.45147985  0.09523404  0.71020238     0.93300
O183        O  0.45384106  0.14929079  0.74057849    -0.80200
O184        O  0.52012807  0.21263724  0.70962545    -0.73800
Al185      Al  0.46212273  0.15254206  0.70726814     1.90100
O186        O  0.49346627  0.18610888  0.75029337    -0.72900
O187        O  0.55314337  0.19304988  0.71435635    -0.72700
O188        O  0.52167198  0.16087975  0.75111768    -0.78400
O189        O  0.53929785  0.16679025  0.68284197    -0.76600
O190        O  0.49626032  0.15802685  0.71131970    -1.12700
O191        O  0.48830503  0.13291217  0.66778565    -0.71900
C192        C  0.47552065  0.14452711  0.66008733     0.98800
C193        C  0.46866336  0.16802104  0.75538639     0.95200
Al194      Al  0.52004713  0.18575391  0.72973500     1.55600
O195        O  0.44317058  0.11219980  0.70691524    -0.76500
C196        C  0.55815341  0.18709439  0.69419270     0.99400
C197        C  0.49871432  0.21378340  0.70492344     0.94300
O198        O  0.47442503  0.19225776  0.70673258    -0.81800
O199        O  0.61581599  0.16526478  0.95385425    -0.81300
C200        C  0.72038302  0.21700733  0.90581726     0.98100
O201        O  0.70306408  0.22521500  0.90619777    -0.70400
O202        O  0.65330814  0.18650070  0.89240089    -0.74000
Al203      Al  0.66619836  0.20978795  0.91927384     1.49000
C204        C  0.63222483  0.16223164  0.89108470     0.93300
O205        O  0.65485351  0.13208418  0.92798271    -0.80200
O206        O  0.68363148  0.18633587  0.98066254    -0.73800
Al207      Al  0.63711755  0.15057725  0.94080243     1.90100
O208        O  0.69322913  0.15513239  0.94860735    -0.72900
O209        O  0.71410185  0.23160130  0.95488101    -0.72700
O210        O  0.71851365  0.19907672  0.92051525    -0.78400
O211        O  0.67931929  0.23647514  0.94426176    -0.76600
O212        O  0.66756487  0.18422146  0.93669811    -1.12700
O213        O  0.62895636  0.19960453  0.92848158    -0.71900
C214        C  0.61230373  0.18361213  0.94429478     0.98800
C215        C  0.67737291  0.13481138  0.93539332     0.95200
Al216      Al  0.69963000  0.19222257  0.95019185     1.55600
O217        O  0.62205538  0.14777939  0.90964000    -0.76500
C218        C  0.70293329  0.24629680  0.95387560     0.99400
C219        C  0.66177757  0.16462077  0.98774036     0.94300
O220        O  0.64553077  0.14634288  0.97304306    -0.81800
O221        O  0.81985742  0.32789211  0.67836717    -0.81300
C222        C  0.83165178  0.39524508  0.75589507     0.98100
O223        O  0.83824440  0.40364501  0.73448830    -0.70400
O224        O  0.86744004  0.38792724  0.71004683    -0.74000
Al225      Al  0.83296142  0.38481782  0.70439158     1.49000
C226        C  0.87571880  0.37114486  0.71346059     0.93300
O227        O  0.82011933  0.31393271  0.74388784    -0.80200
O228        O  0.75961676  0.32180991  0.71683422    -0.73800
Al229      Al  0.81901675  0.32336569  0.71144779     1.90100
O230        O  0.78330952  0.31430589  0.75505202    -0.72900
O231        O  0.78038705  0.37448409  0.72959190    -0.72700
O232        O  0.81390058  0.36988037  0.76067475    -0.78400
O233        O  0.80136824  0.38799117  0.69584742    -0.76600
O234        O  0.81333318  0.35136179  0.71788150    -1.12700
O235        O  0.83094593  0.37112830  0.67286263    -0.71900
C236        C  0.82531294  0.34777060  0.66464226     0.98800
C237        C  0.80037714  0.30650647  0.75821142     0.95200
Al238      Al  0.78680293  0.34555348  0.73857414     1.55600
O239        O  0.85871876  0.34518447  0.71383694    -0.76500
C240        C  0.78429137  0.38760048  0.71063253     0.99400
C241        C  0.75875292  0.30100792  0.70697001     0.94300
O242        O  0.77924667  0.29700109  0.70761749    -0.81800
O243        O  0.80868645  0.47123711  0.95372352    -0.81300
C244        C  0.75563713  0.52025746  0.90478026     0.98100
O245        O  0.75085491  0.49571764  0.90342405    -0.70400
O246        O  0.79351778  0.49157208  0.89094942    -0.74000
Al247      Al  0.76734594  0.47648616  0.91616051     1.49000
C248        C  0.81743151  0.49449530  0.89155111     0.93300
O249        O  0.84111822  0.54612328  0.93026991    -0.80200
O250        O  0.78445048  0.51431770  0.98078009    -0.73800
Al251      Al  0.82363846  0.50872570  0.94184941     1.90100
O252        O  0.81468321  0.55809447  0.94955141    -0.72900
O253        O  0.74023524  0.49536749  0.95343778    -0.72700
O254        O  0.77116391  0.53653114  0.92087433    -0.78400
O255        O  0.73833333  0.45818985  0.93886349    -0.76600
O256        O  0.78978643  0.50315832  0.93606521    -1.12700
O257        O  0.77877887  0.45118406  0.92471725    -0.71900
C258        C  0.79192536  0.44953247  0.94213785     0.98800
C259        C  0.83596127  0.56461976  0.93697238     0.95200
Al260      Al  0.77866111  0.52434770  0.95016309     1.55600
O261        O  0.82971614  0.49831348  0.91112450    -0.76500
C262        C  0.72685632  0.46933224  0.94977417     0.99400
C263        C  0.80679329  0.51665799  0.98830790     0.94300
O264        O  0.82565974  0.52025781  0.97393895    -0.81800
O265        O  0.32423563  0.52651105  0.52610495    -0.81300
C266        C  0.22085117  0.47137701  0.57549669     0.98100
O267        O  0.23999237  0.49657530  0.57740560    -0.70400
O268        O  0.28904379  0.50531799  0.58949814    -0.74000
Al269      Al  0.27619140  0.51844113  0.56412272     1.49000
C270        C  0.31096991  0.50418097  0.58858095     0.93300
O271        O  0.28318066  0.45245446  0.54958796    -0.80200
O272        O  0.25664467  0.48151262  0.49873281    -0.73800
Al273      Al  0.30228474  0.48930827  0.53798517     1.90100
O274        O  0.24405416  0.43777885  0.53012652    -0.72900
O275        O  0.22921164  0.49759177  0.52608618    -0.72700
O276        O  0.22004056  0.45663438  0.55827826    -0.78400
O277        O  0.26414445  0.53507177  0.54171698    -0.76600
O278        O  0.27282194  0.49270672  0.54389500    -1.12700
O279        O  0.31316881  0.54559439  0.55487854    -0.71900
C280        C  0.32895645  0.54773072  0.53788577     0.98800
C281        C  0.25952456  0.43284194  0.54309099     0.95200
Al282      Al  0.24026060  0.47023126  0.52937844     1.55600
O283        O  0.31935219  0.50068887  0.56878378    -0.76500
C284        C  0.24188076  0.52357173  0.52987151     0.99400
C285        C  0.27745956  0.48064341  0.49131025     0.94300
O286        O  0.29282132  0.47750652  0.50580573    -0.81800
O287        O  0.13323282  0.49049058  0.80432072    -0.81300
C288        C  0.12379699  0.55687373  0.73400071     0.98100
O289        O  0.11523808  0.55443232  0.75523253    -0.70400
O290        O  0.08307229  0.50241826  0.76765694    -0.74000
Al291      Al  0.11483173  0.53166663  0.78150583     1.49000
C292        C  0.07517851  0.47703322  0.76562158     0.93300
O293        O  0.13012164  0.47992909  0.73843407    -0.80200
O294        O  0.19149692  0.54571089  0.76912658    -0.73800
Al295      Al  0.13188480  0.48752581  0.77127200     1.90100
O296        O  0.16542279  0.52034542  0.72784721    -0.72900
O297        O  0.17192009  0.57866145  0.76634708    -0.72700
O298        O  0.14046090  0.54899943  0.72819861    -0.78400
O299        O  0.14429814  0.56283252  0.79720918    -0.76600
O300        O  0.13710723  0.52168389  0.76743650    -1.12700
O301        O  0.10997400  0.51150449  0.81063830    -0.71900
C302        C  0.12203199  0.49922198  0.81843952     0.98800
C303        C  0.14831360  0.49504232  0.72343403     0.95200
Al304      Al  0.16496639  0.54627991  0.74940202     1.55600
O305        O  0.09162443  0.46834285  0.76997291    -0.76500
C306        C  0.16486929  0.58239925  0.78661045     0.99400
C307        C  0.19253341  0.52462846  0.77532008     0.94300
O308        O  0.17145895  0.50018119  0.77319769    -0.81800
O309        O  0.30939781  0.84325445  0.80664098    -0.81300
C310        C  0.38155530  0.85035913  0.73450245     0.98100
O311        O  0.38936612  0.86057754  0.75519298    -0.70400
O312        O  0.37181624  0.89211030  0.77358419    -0.74000
Al313      Al  0.36898994  0.85842667  0.78378669     1.49000
C314        C  0.35411824  0.89907832  0.76956435     0.93300
O315        O  0.30076966  0.84137152  0.73994282    -0.80200
O316        O  0.30434044  0.78209919  0.77515122    -0.73800
Al317      Al  0.30711151  0.84174781  0.77340237     1.90100
O318        O  0.30173988  0.80380623  0.73269300    -0.72900
O319        O  0.35715243  0.80066520  0.76739636    -0.72700
O320        O  0.35681002  0.83075224  0.73046299    -0.78400
O321        O  0.37296279  0.82921776  0.79707153    -0.76600
O322        O  0.33574257  0.83611351  0.77022705    -1.12700
O323        O  0.35365626  0.85914361  0.81402859    -0.71900
C324        C  0.32911770  0.85084370  0.82112167     0.98800
C325        C  0.29499965  0.82111916  0.72654682     0.95200
Al326      Al  0.33048433  0.80706081  0.75306208     1.55600
O327        O  0.32845905  0.88119765  0.77025292    -0.76500
C328        C  0.37068179  0.80853804  0.78627430     0.99400
C329        C  0.28256588  0.78190929  0.78146785     0.94300
O330        O  0.27954092  0.80256014  0.77759723    -0.81800
O331        O  0.14317556  0.64739105  0.53074165    -0.81300
C332        C  0.20168946  0.75362959  0.57466150     0.98100
O333        O  0.20875092  0.73552351  0.57391441    -0.70400
O334        O  0.16802441  0.68860996  0.59064568    -0.74000
Al335      Al  0.18983368  0.69775331  0.56299512     1.49000
C336        C  0.14356740  0.66811505  0.59318524     0.93300
O337        O  0.11332035  0.69078324  0.55503552    -0.80200
O338        O  0.16583322  0.71419978  0.50090013    -0.73800
Al339      Al  0.13013966  0.67063896  0.54309633     1.90100
O340        O  0.13817008  0.72827739  0.53352053    -0.72900
O341        O  0.21240220  0.74308855  0.52546210    -0.72700
O342        O  0.18356423  0.75244575  0.56048545    -0.78400
O343        O  0.21450498  0.70679675  0.53684158    -0.76600
O344        O  0.16457411  0.70003821  0.54580593    -1.12700
O345        O  0.17691145  0.65959926  0.55637140    -0.71900
C346        C  0.16133423  0.64357789  0.54028091     0.98800
C347        C  0.11742050  0.71364035  0.54683394     0.95200
Al348      Al  0.17405490  0.73185456  0.53113670     1.55600
O349        O  0.12794256  0.65736710  0.57527082    -0.76500
C350        C  0.22538495  0.73011755  0.52655558     0.99400
C351        C  0.14342219  0.69244845  0.49472752     0.94300
O352        O  0.12543632  0.67749517  0.51027646    -0.81800
O353        O  0.49339265  0.66358577  0.80173639    -0.81300
C354        C  0.42649127  0.59420003  0.72953252     0.98100
O355        O  0.44081451  0.59264321  0.74616990    -0.70400
O356        O  0.48367238  0.61501686  0.77628640    -0.74000
Al357      Al  0.44742055  0.61141896  0.77630132     1.49000
C358        C  0.50557431  0.63113337  0.76465848     0.93300
O359        O  0.49938601  0.69071643  0.73863913    -0.80200
O360        O  0.44768152  0.68602498  0.75287106    -0.73800
Al361      Al  0.49256156  0.67371148  0.76942455     1.90100
O362        O  0.46247381  0.66129043  0.71850305    -0.72900
O363        O  0.40727091  0.63635701  0.76625526    -0.72700
O364        O  0.42028631  0.61292149  0.72954810    -0.78400
O365        O  0.40885586  0.60030888  0.77906626    -0.76600
O366        O  0.45874234  0.64460892  0.76303202    -1.12700
O367        O  0.45217194  0.62654960  0.80749555    -0.71900
C368        C  0.47381276  0.64762439  0.81563696     0.98800
C369        C  0.48704516  0.68190123  0.71905145     0.95200
Al370      Al  0.43635691  0.64880292  0.74349388     1.55600
O371        O  0.51051735  0.65480938  0.75798815    -0.76500
C372        C  0.39570013  0.61294756  0.77648069     0.99400
C373        C  0.46151817  0.70088135  0.77026044     0.94300
O374        O  0.47795702  0.69571625  0.78135129    -0.81800
O375        O  0.44931925  0.82720537  0.53036785    -0.81300
C376        C  0.51002546  0.78429493  0.57510783     0.98100
O377        O  0.48447546  0.77597321  0.57757975    -0.70400
O378        O  0.47458065  0.81444537  0.59160297    -0.74000
Al379      Al  0.46102045  0.78868401  0.56612900     1.49000
C380        C  0.47515664  0.83727510  0.59193498     0.93300
O381        O  0.52473657  0.86595472  0.55114662    -0.80200
O382        O  0.49530673  0.80933222  0.50023916    -0.73800
Al383      Al  0.48710455  0.84528351  0.54092512     1.90100
O384        O  0.53961136  0.84309573  0.53010157    -0.72900
O385        O  0.48257360  0.76570606  0.52690613    -0.72700
O386        O  0.52404898  0.79983479  0.55806565    -0.78400
O387        O  0.44452180  0.76012957  0.54329077    -0.76600
O388        O  0.48557733  0.81299933  0.54576593    -1.12700
O389        O  0.43212094  0.79609574  0.55884921    -0.71900
C390        C  0.42855729  0.80860327  0.54178970     0.98800
C391        C  0.54454090  0.86362754  0.54312656     0.95200
Al392      Al  0.50853087  0.80524565  0.52998802     1.55600
O393        O  0.47674820  0.84949231  0.57263964    -0.76500
C394        C  0.45667516  0.75079941  0.53093824     0.99400
C395        C  0.49463943  0.83039878  0.49329831     0.94300
O396        O  0.49743518  0.84865868  0.50809581    -0.81800
O397        O  0.30343203  0.84239877  0.01021938    -0.81300
C398        C  0.23035301  0.77556098  0.08303995     0.98100
O399        O  0.22247290  0.77786829  0.06240411    -0.70400
O400        O  0.24176453  0.82844591  0.04522370    -0.74000
Al401      Al  0.24332470  0.79757891  0.03388479     1.49000
C402        C  0.25983755  0.85373309  0.04841100     0.93300
O403        O  0.31280011  0.84933975  0.07692704    -0.80200
O404        O  0.30692033  0.78510051  0.04205967    -0.73800
Al405      Al  0.30599075  0.84324330  0.04353487     1.90100
O406        O  0.30982646  0.80979899  0.08411356    -0.72900
O407        O  0.25354222  0.75124934  0.04950194    -0.72700
O408        O  0.25522198  0.78177960  0.08677961    -0.78400
O409        O  0.23859860  0.76424683  0.01962859    -0.76600
O410        O  0.27661970  0.80853135  0.04693227    -1.12700
O411        O  0.25859183  0.81514664  0.00379332    -0.71900
C412        C  0.28314291  0.83122125  0.99611272     0.98800
C413        C  0.31704539  0.83404867  0.09050532     0.95200
Al414      Al  0.28093165  0.78424571  0.06397424     1.55600
O415        O  0.28548443  0.86207395  0.04682991    -0.76500
C416        C  0.24041279  0.74559640  0.03040827     0.99400
C417        C  0.32950824  0.80689842  0.03632135     0.94300
O418        O  0.33259360  0.83092163  0.03930069    -0.81800
O419        O  0.46942447  0.80444820  0.28612991    -0.81300
C420        C  0.42067275  0.85469908  0.23343975     0.98100
O421        O  0.41403803  0.82940712  0.23250097    -0.70400
O422        O  0.45581034  0.82298990  0.22250344    -0.74000
Al423      Al  0.42907887  0.80893707  0.24698871     1.49000
C424        C  0.48008968  0.82697192  0.22345513     0.93300
O425        O  0.50262647  0.87833913  0.26243750    -0.80200
O426        O  0.44286022  0.84612907  0.31108120    -0.73800
Al427      Al  0.48460367  0.84122621  0.27404099     1.90100
O428        O  0.47617636  0.89052450  0.28109897    -0.72900
O429        O  0.40129527  0.82949607  0.28176121    -0.72700
O430        O  0.43523721  0.87029203  0.25021467    -0.78400
O431        O  0.39943237  0.79160535  0.26921545    -0.76600
O432        O  0.45112805  0.83574202  0.26695614    -1.12700
O433        O  0.43966931  0.78292277  0.25714687    -0.71900
C434        C  0.45296087  0.78240004  0.27505143     0.98800
C435        C  0.49763991  0.89698232  0.26885568     0.95200
Al436      Al  0.43988843  0.85732957  0.28004540     1.55600
O437        O  0.49204042  0.83087707  0.24330858    -0.76500
C438        C  0.38818241  0.80332528  0.27954134     0.99400
C439        C  0.46475517  0.84862091  0.31977173     0.94300
O440        O  0.48472578  0.85252342  0.30642965    -0.81800
O441        O  0.16299797  0.67661491  0.28741400    -0.81300
C442        C  0.11080913  0.57233242  0.23999089     0.98100
O443        O  0.13611144  0.59141242  0.23913919    -0.70400
O444        O  0.14180434  0.63879585  0.22473183    -0.74000
Al445      Al  0.15606381  0.62867289  0.25080860     1.49000
C446        C  0.14040388  0.66058703  0.22455341     0.93300
O447        O  0.08901819  0.63583616  0.26374589    -0.80200
O448        O  0.11762669  0.61021426  0.31548690    -0.73800
Al449      Al  0.12593625  0.65484659  0.27523598     1.90100
O450        O  0.07479127  0.59674346  0.28322222    -0.72900
O451        O  0.13505156  0.58313929  0.28886658    -0.72700
O452        O  0.09469336  0.57274618  0.25554577    -0.78400
O453        O  0.17303715  0.61913855  0.27465430    -0.76600
O454        O  0.12960621  0.62545915  0.27022725    -1.12700
O455        O  0.18233466  0.66654712  0.25819576    -0.71900
C456        C  0.18433713  0.68149015  0.27572920     0.98800
C457        C  0.06948874  0.61259181  0.27114263     0.95200
Al458      Al  0.10724157  0.59330460  0.28478170     1.55600
O459        O  0.13746412  0.67038368  0.24386845    -0.76500
C460        C  0.16122124  0.59631851  0.28569195     0.99400
C461        C  0.11613095  0.63089330  0.32244456     0.94300
O462        O  0.11352460  0.64628415  0.30760304    -0.81800
O463        O  0.12510017  0.48101768  0.00714698    -0.81300
C464        C  0.18599904  0.47452472  0.08400165     0.98100
O465        O  0.18744788  0.46760033  0.06277667    -0.70400
O466        O  0.13929856  0.43460271  0.04347244    -0.74000
Al467      Al  0.16965197  0.46887555  0.03360419     1.49000
C468        C  0.11367184  0.42541422  0.04603552     0.93300
O469        O  0.11085215  0.47912241  0.07335762    -0.80200
O470        O  0.17855639  0.54240580  0.04480852    -0.73800
Al471      Al  0.12114082  0.48102204  0.04047081     1.90100
O472        O  0.14872871  0.51678344  0.08413156    -0.72900
O473        O  0.21210280  0.52419585  0.05445661    -0.72700
O474        O  0.17701135  0.49076660  0.08840166    -0.78400
O475        O  0.20304277  0.50089215  0.02165945    -0.76600
O476        O  0.15573815  0.48839117  0.04647297    -1.12700
O477        O  0.15465871  0.46662393  0.00270814    -0.71900
C478        C  0.13851471  0.47380444  0.99403275     0.98800
C479        C  0.12365376  0.49868741  0.08789208     0.95200
Al480      Al  0.17710641  0.51602739  0.06615207     1.55600
O481        O  0.10375638  0.44100395  0.04271021    -0.76500
C482        C  0.22035273  0.51966153  0.03521779     0.99400
C483        C  0.15775874  0.54249024  0.03620798     0.94300
O484        O  0.13330720  0.52077592  0.03700162    -0.81800
O485        O  0.48222964  0.67340460  0.00412841    -0.81300
C486        C  0.50671267  0.74660758  0.08113155     0.98100
O487        O  0.51411969  0.75453748  0.05972825    -0.70400
O488        O  0.53886644  0.73144964  0.03779350    -0.74000
Al489      Al  0.50733130  0.73363711  0.03006603     1.49000
C490        C  0.54306346  0.71143836  0.03905486     0.93300
O491        O  0.48492489  0.66063794  0.06966885    -0.80200
O492        O  0.42919859  0.67710746  0.04394928    -0.73800
Al493      Al  0.48328480  0.66959929  0.03711307     1.90100
O494        O  0.45255189  0.66802225  0.08192739    -0.72900
O495        O  0.45733995  0.73094015  0.05355957    -0.72700
O496        O  0.48740052  0.72196941  0.08574710    -0.78400
O497        O  0.47900117  0.74105493  0.01975190    -0.76600
O498        O  0.48344363  0.70095478  0.04356867    -1.12700
O499        O  0.50484798  0.71869423  0.99879770    -0.71900
C500        C  0.49310572  0.69419009  0.99053273     0.98800
C501        C  0.46765905  0.65783188  0.08532189     0.95200
Al502      Al  0.45884718  0.69958256  0.06435174     1.55600
O503        O  0.52307141  0.68651430  0.03729353    -0.76500
C504        C  0.46306393  0.74346506  0.03402593     0.99400
C505        C  0.42400177  0.65385433  0.03578512     0.94300
O506        O  0.44271877  0.64724299  0.03556210    -0.81800
O507        O  0.28248121  0.49878188  0.27233680    -0.81300
C508        C  0.38695265  0.55245728  0.23135067     0.98100
O509        O  0.36259302  0.54728487  0.22689658    -0.70400
O510        O  0.30809947  0.51884683  0.22737131    -0.74000
Al511      Al  0.33577842  0.54488939  0.24836846     1.49000
C512        C  0.29861987  0.49352845  0.22286847     0.93300
O513        O  0.32823909  0.46664237  0.26957728    -0.80200
O514        O  0.35556811  0.51478634  0.31050183    -0.73800
Al515      Al  0.30871299  0.48629352  0.27044996     1.90100
O516        O  0.37245203  0.49920512  0.27033301    -0.72900
O517        O  0.37706046  0.56451654  0.29364350    -0.72700
O518        O  0.39385298  0.54967378  0.25219684    -0.78400
O519        O  0.36226427  0.57786050  0.26384568    -0.76600
O520        O  0.33890722  0.52055450  0.26643069    -1.12700
O521        O  0.30872952  0.54444594  0.26882091    -0.71900
C522        C  0.28607091  0.52290854  0.27472913     0.98800
C523        C  0.35360489  0.47402825  0.26827398     0.95200
Al524      Al  0.37177645  0.53092655  0.28038927     1.55600
O525        O  0.30217516  0.47847315  0.23732584    -0.76500
C526        C  0.37479492  0.58302408  0.28326386     0.99400
C527        C  0.33066974  0.50076714  0.31787481     0.94300
O528        O  0.31056199  0.48930532  0.30362044    -0.81800
O529        O  0.96390880  0.18392114  0.34268660    -0.81300
C530        C  0.89334567  0.11213542  0.41169476     0.98100
O531        O  0.89335061  0.12921540  0.39698213    -0.70400
O532        O  0.91649097  0.17351713  0.36864662    -0.74000
Al533      Al  0.91171544  0.13681192  0.36673379     1.49000
C534        C  0.93242560  0.19434517  0.38147729     0.93300
O535        O  0.99104238  0.18448484  0.40523103    -0.80200
O536        O  0.98502843  0.13364654  0.38715466    -0.73800
Al537      Al  0.97405034  0.18048032  0.37452493     1.90100
O538        O  0.96085455  0.14624040  0.42367282    -0.72900
O539        O  0.93544674  0.09543050  0.37253626    -0.72700
O540        O  0.91176568  0.10550166  0.41086750    -0.78400
O541        O  0.89904217  0.09770634  0.36227077    -0.76600
O542        O  0.94458174  0.14651932  0.37957319    -1.12700
O543        O  0.92701708  0.14292947  0.33553675    -0.71900
C544        C  0.94821176  0.16506969  0.32814610     0.98800
C545        C  0.98197251  0.17056460  0.42421839     0.95200
Al546      Al  0.94801185  0.12226729  0.39711481     1.55600
O547        O  0.95569792  0.19812346  0.38807877    -0.76500
C548        C  0.91150068  0.08421620  0.36338295     0.99400
C549        C  0.99975677  0.14837955  0.36999471     0.94300
O550        O  0.99532240  0.16614436  0.36045721    -0.81800
O551        O  0.13818612  0.14335321  0.62094620    -0.81300
C552        C  0.08795328  0.19453384  0.57042574     0.98100
O553        O  0.08246110  0.16971158  0.56899111    -0.70400
O554        O  0.12439852  0.16396905  0.55703905    -0.74000
Al555      Al  0.09826187  0.14967780  0.58236925     1.49000
C556        C  0.14772851  0.16565804  0.55755224     0.93300
O557        O  0.17285826  0.21753800  0.59610687    -0.80200
O558        O  0.11638406  0.18865163  0.64715728    -0.73800
Al559      Al  0.15427587  0.18044459  0.60816481     1.90100
O560        O  0.14698947  0.23084394  0.61479645    -0.72900
O561        O  0.07179835  0.16968462  0.62003037    -0.72700
O562        O  0.10295948  0.21027369  0.58695242    -0.78400
O563        O  0.06980581  0.13253390  0.60513829    -0.76600
O564        O  0.12092568  0.17611944  0.60220684    -1.12700
O565        O  0.10876419  0.12345361  0.59158662    -0.71900
C566        C  0.12130604  0.12164695  0.60953018     0.98800
C567        C  0.16856147  0.23659324  0.60287973     0.95200
Al568      Al  0.11051153  0.19804767  0.61619319     1.55600
O569        O  0.15978322  0.16848419  0.57722437    -0.76500
C570        C  0.05856318  0.14370726  0.61631082     0.99400
C571        C  0.13888152  0.19145233  0.65472548     0.94300
O572        O  0.15695988  0.19316234  0.64020806    -0.81800
O573        O  0.15142784  0.00471209  0.33699435    -0.81300
C574        C  0.15468976  0.07597525  0.40977768     0.98100
O575        O  0.16670397  0.08416698  0.38978357    -0.70400
O576        O  0.19850816  0.06617327  0.37439298    -0.74000
Al577      Al  0.16666656  0.06418678  0.36166851     1.49000
C578        C  0.20603800  0.04872605  0.37707831     0.93300
O579        O  0.14869190  0.99516238  0.40356297    -0.80200
O580        O  0.08924430  0.99784063  0.36887022    -0.73800
Al581      Al  0.14924129  0.00161788  0.37032877     1.90100
O582        O  0.11164305  0.99716585  0.41156248    -0.72900
O583        O  0.10761742  0.05038949  0.37484030    -0.72700
O584        O  0.13575601  0.05096990  0.41328250    -0.78400
O585        O  0.13850679  0.06880494  0.34669188    -0.76600
O586        O  0.14341069  0.03026023  0.37395086    -1.12700
O587        O  0.17044785  0.05002151  0.33178747    -0.71900
C588        C  0.16202423  0.02585231  0.32368160     0.98800
C589        C  0.12959955  0.99131191  0.41767513     0.95200
Al590      Al  0.11376710  0.02453788  0.39051809     1.55600
O591        O  0.18902537  0.02317609  0.37352106    -0.76500
C592        C  0.11685019  0.06538185  0.35671641     0.99400
C593        C  0.08867561  0.97582845  0.36296584     0.94300
O594        O  0.10974356  0.97328341  0.36623676    -0.81800
O595        O  0.83659937  0.02292001  0.60778319    -0.81300
C596        C  0.78272416  0.91753376  0.56874602     0.98100
O597        O  0.80162996  0.94205492  0.56318050    -0.70400
O598        O  0.83076049  0.99710617  0.56334424    -0.74000
Al599      Al  0.82717239  0.96899254  0.58457134     1.63400
C600        C  0.81532967  0.00661412  0.55832570     0.93300
O601        O  0.75733369  0.97750256  0.60395652    -0.80200
O602        O  0.77453664  0.95090665  0.64595638    -0.73800
Al603      Al  0.79685427  0.99697453  0.60545472     1.90100
O604        O  0.74424527  0.93319447  0.60452148    -0.72900
O605        O  0.80439912  0.93000947  0.63141258    -0.72700
O606        O  0.77351935  0.91140643  0.58984472    -0.78400
O607        O  0.83187260  0.94193151  0.60066672    -0.76600
O608        O  0.79981221  0.96665426  0.60238614    -1.12700
O609        O  0.85418664  0.99565466  0.60489846    -0.71900
C610        C  0.85649641  0.01854724  0.61074769     0.98800
C611        C  0.73880117  0.95218644  0.60158373     0.95200
Al612      Al  0.77609114  0.93425757  0.61673870     1.55600
O613        O  0.79601484  0.00256059  0.57221412    -0.76500
C614        C  0.82403906  0.93010460  0.62045860     0.99400
C615        C  0.78555445  0.97585715  0.65292623     0.94300
O616        O  0.79698526  0.99589367  0.63859075    -0.81800
O617        O  0.79256944  0.82034026  0.34233186    -0.81300
C618        C  0.85679762  0.80679374  0.41201492     0.98100
O619        O  0.85556957  0.79948004  0.39050467    -0.70400
O620        O  0.80454688  0.76855027  0.37425970    -0.74000
Al621      Al  0.83563072  0.80252103  0.36353531     1.49000
C622        C  0.77925412  0.76080773  0.37736849     0.93300
O623        O  0.78332883  0.81507422  0.40903143    -0.80200
O624        O  0.84940385  0.87829036  0.37852428    -0.73800
Al625      Al  0.79066773  0.81835633  0.37566938     1.90100
O626        O  0.82326823  0.85088657  0.41907224    -0.72900
O627        O  0.88251698  0.85856753  0.38223517    -0.72700
O628        O  0.85069878  0.82479736  0.41798655    -0.78400
O629        O  0.86883582  0.83349834  0.35019255    -0.76600
O630        O  0.82502087  0.82363320  0.37876847    -1.12700
O631        O  0.81794133  0.80177158  0.33430991    -0.71900
C632        C  0.80300799  0.81142325  0.32756220     0.98800
C633        C  0.79855620  0.83278254  0.42425804     0.95200
Al634      Al  0.84924227  0.85067556  0.39771562     1.55600
O635        O  0.77135755  0.77825387  0.37588477    -0.76500
C636        C  0.88773255  0.85348054  0.36187625     0.99400
C637        C  0.82820857  0.87945450  0.37287264     0.94300
O638        O  0.80372496  0.85821084  0.37475156    -0.81800
O639        O  0.94094024  0.82904710  0.60734813    -0.81300
C640        C  0.04408390  0.89573805  0.56694552     0.98100
O641        O  0.01892842  0.88838871  0.56307651    -0.70400
O642        O  0.96459447  0.85520520  0.56346776    -0.74000
Al643      Al  0.99110873  0.88097929  0.58558170     1.49000
C644        C  0.95888282  0.83146184  0.55656716     0.93300
O645        O  0.99456074  0.80621016  0.59851625    -0.80200
O646        O  0.01657940  0.84890874  0.64329056    -0.73800
Al647      Al  0.97068822  0.82124667  0.60273266     1.90100
O648        O  0.03670496  0.84256679  0.59994050    -0.72900
O649        O  0.03233383  0.90010861  0.63093810    -0.72700
O650        O  0.05203271  0.89321611  0.58740075    -0.78400
O651        O  0.01565385  0.91367629  0.60268282    -0.76600
O652        O  0.99782884  0.85728631  0.60102230    -1.12700
O653        O  0.96274309  0.87506037  0.60725461    -0.71900
C654        C  0.94139015  0.85155541  0.61165319     0.98800
C655        C  0.02052818  0.81717515  0.59549920     0.95200
Al656      Al  0.03137478  0.86988497  0.61429927     1.55600
O657        O  0.96506859  0.81699495  0.56933660    -0.76500
C658        C  0.02911738  0.91865831  0.62160743     0.99400
C659        C  0.99209584  0.83141452  0.65034806     0.94300
O660        O  0.97221304  0.82026607  0.63589574    -0.81800
O661        O  0.98604398  0.85558895  0.85848863    -0.81300
C662        C  0.88234474  0.80141964  0.90696290     0.98100
O663        O  0.89969675  0.82733559  0.90639606    -0.70400
O664        O  0.94861228  0.83801209  0.92061928    -0.74000
Al665      Al  0.93638566  0.84885145  0.89355195     1.49000
C666        C  0.96985464  0.83574634  0.92149586     0.93300
O667        O  0.94600691  0.78195365  0.88423411    -0.80200
O668        O  0.91869407  0.80745160  0.83090994    -0.73800
Al669      Al  0.96436472  0.81885528  0.87158494     1.90100
O670        O  0.90748417  0.76625392  0.86390461    -0.72900
O671        O  0.88906246  0.82340700  0.85693214    -0.72700
O672        O  0.88300976  0.78531382  0.89161427    -0.78400
O673        O  0.92443407  0.86309777  0.86880768    -0.76600
O674        O  0.93434515  0.82179488  0.87567362    -1.12700
O675        O  0.97344378  0.87612428  0.88451689    -0.71900
C676        C  0.98961521  0.87755761  0.86815967     0.98800
C677        C  0.92322401  0.76172600  0.87684161     0.95200
Al678      Al  0.90222991  0.79756769  0.86183618     1.55600
O679        O  0.97948987  0.83154946  0.90267719    -0.76500
C680        C  0.90112339  0.84971443  0.85862088     0.99400
C681        C  0.94004129  0.80680169  0.82430931     0.94300
O682        O  0.95600958  0.80574619  0.83955523    -0.81800
O683        O  0.15050367  0.99806609  0.13535494    -0.81300
C684        C  0.08495110  0.92665826  0.06216511     0.98100
O685        O  0.08662424  0.91830410  0.08282799    -0.70400
O686        O  0.13658373  0.93740871  0.10035504    -0.74000
Al687      Al  0.10578168  0.93865836  0.11173387     1.49000
C688        C  0.16176220  0.95521794  0.09638540     0.93300
O689        O  0.15748988  0.00884567  0.06923802    -0.80200
O690        O  0.09244433  0.00104544  0.10429942    -0.73800
Al691      Al  0.15132236  0.00139043  0.10234249     1.90100
O692        O  0.11826044  0.00645121  0.06230716    -0.72900
O693        O  0.05928317  0.94755125  0.09516239    -0.72700
O694        O  0.09154179  0.95172643  0.05867290    -0.78400
O695        O  0.07231802  0.93378186  0.12574922    -0.76600
O696        O  0.11678062  0.97202293  0.09885354    -1.12700
O697        O  0.12290354  0.95337641  0.14219135    -0.71900
C698        C  0.13919594  0.97792267  0.14965744     0.98800
C699        C  0.14250232  0.01360275  0.05585034     0.95200
Al700      Al  0.09261916  0.97633576  0.08175959     1.55600
O701        O  0.17036960  0.98094807  0.09814414    -0.76500
C702        C  0.05328116  0.93361761  0.11386115     0.99400
C703        C  0.11386198  0.02353148  0.11081488     0.94300
O704        O  0.13834794  0.02775755  0.10745600    -0.81800
O705        O  0.11233542  0.15410694  0.86311765    -0.81300
C706        C  0.16828250  0.10522175  0.90555667     0.98100
O707        O  0.14214237  0.09471443  0.90505489    -0.70400
O708        O  0.13042404  0.13085602  0.92262881    -0.74000
Al709      Al  0.11995270  0.10956104  0.89429556     1.49000
C710        C  0.13265453  0.15434485  0.92518462     0.93300
O711        O  0.18652523  0.18862941  0.88757008    -0.80200
O712        O  0.16085570  0.13845100  0.83198222    -0.73800
Al713      Al  0.14938666  0.16974516  0.87536754     1.90100
O714        O  0.20231364  0.16840183  0.86446499    -0.72900
O715        O  0.14619723  0.09204066  0.85556876    -0.72700
O716        O  0.18403639  0.12337788  0.89060839    -0.78400
O717        O  0.10602058  0.08521497  0.86785800    -0.76600
O718        O  0.14681329  0.13681911  0.87721782    -1.12700
O719        O  0.09220045  0.11853087  0.88755999    -0.71900
C720        C  0.09058072  0.13435962  0.87257375     0.98800
C721        C  0.20674526  0.18724766  0.87915879     0.95200
Al722      Al  0.17132762  0.13105057  0.86184019     1.55600
O723        O  0.13718228  0.16980689  0.90732340    -0.76500
C724        C  0.11988803  0.07726036  0.85620181     0.99400
C725        C  0.16089350  0.16043958  0.82673750     0.94300
O726        O  0.16173533  0.17654368  0.84295835    -0.81800
O727        O  0.80708713  0.97802693  0.85944537    -0.81300
C728        C  0.86300327  0.08142147  0.90840934     0.98100
O729        O  0.86931447  0.06274635  0.90779738    -0.70400
O730        O  0.82773971  0.01453000  0.92208046    -0.74000
Al731      Al  0.85126539  0.02583967  0.89522198     1.49000
C732        C  0.80400726  0.99258431  0.92275788     0.93300
O733        O  0.77601504  0.01932286  0.88583991    -0.80200
O734        O  0.83025694  0.04660823  0.83329745    -0.73800
Al735      Al  0.79308141  0.00008752  0.87290491     1.90100
O736        O  0.80147744  0.05840937  0.86634946    -0.72900
O737        O  0.87584761  0.07326234  0.85913253    -0.72700
O738        O  0.84574174  0.08114469  0.89386393    -0.78400
O739        O  0.87732554  0.03654541  0.87022104    -0.76600
O740        O  0.82717884  0.02933411  0.87745075    -1.12700
O741        O  0.83885275  0.98825439  0.88672574    -0.71900
C742        C  0.82425212  0.97320377  0.86974546     0.98800
C743        C  0.78049429  0.04290249  0.87912287     0.95200
Al744      Al  0.83736619  0.06210168  0.86409813     1.55600
O745        O  0.78952492  0.98376445  0.90403011    -0.76500
C746        C  0.88864057  0.06009188  0.86036644     0.99400
C747        C  0.80761799  0.02603784  0.82607311     0.94300
O748        O  0.78931949  0.00961740  0.84075229    -0.81800
O749        O  0.96862242  0.17187407  0.14021497    -0.81300
C750        C  0.03264561  0.16712774  0.06500836     0.98100
O751        O  0.04225656  0.17897304  0.08491215    -0.70400
O752        O  0.02851292  0.21459273  0.09932305    -0.74000
Al753      Al  0.02504901  0.18254138  0.11358036     1.49000
C754        C  0.01202552  0.22342099  0.09694155     0.93300
O755        O  0.95510116  0.16605091  0.07470096    -0.80200
O756        O  0.95725880  0.10728889  0.11191143    -0.73800
Al757      Al  0.96360191  0.16835059  0.10742009     1.90100
O758        O  0.95239895  0.12630413  0.06856699    -0.72900
O759        O  0.00897250  0.12252737  0.10189447    -0.72700
O760        O  0.00694668  0.14924192  0.06263083    -0.78400
O761        O  0.02768689  0.15376194  0.12960819    -0.76600
O762        O  0.99043302  0.16028178  0.10301549    -1.12700
O763        O  0.01367669  0.18974734  0.14388445    -0.71900
C764        C  0.99005790  0.18229099  0.15295121     0.98800
C765        C  0.94699675  0.14460590  0.06225283     0.95200
Al766      Al  0.98207152  0.12910410  0.08767127     1.55600
O767        O  0.98659663  0.20792220  0.10222117    -0.76500
C768        C  0.02388841  0.13171721  0.12007966     0.99400
C769        C  0.93638693  0.10869913  0.11834042     0.94300
O770        O  0.93464751  0.12998677  0.11377224    -0.81800
O771        O  0.79076437  0.81558554  0.13974753    -0.81300
C772        C  0.78877157  0.87738992  0.06214249     0.98100
O773        O  0.77650138  0.87482589  0.08186402    -0.70400
O774        O  0.74383551  0.82492912  0.09867755    -0.74000
Al775      Al  0.77488558  0.85616748  0.11138624     1.49000
C776        C  0.73629295  0.79961896  0.09832181     0.93300
O777        O  0.79600684  0.80524886  0.07420668    -0.80200
O778        O  0.85252177  0.87150602  0.10978970    -0.73800
Al779      Al  0.79366349  0.81245938  0.10700254     1.90100
O780        O  0.83418608  0.84488112  0.06743020    -0.72900
O781        O  0.83348316  0.90397860  0.09882119    -0.72700
O782        O  0.80808214  0.87206426  0.06044516    -0.78400
O783        O  0.80169106  0.88947218  0.12625724    -0.76600
O784        O  0.79899575  0.84636540  0.10142962    -1.12700
O785        O  0.76982099  0.83967852  0.14230338    -0.71900
C786        C  0.77989885  0.82636860  0.15197644     0.98800
C787        C  0.81705444  0.82016241  0.06138503     0.95200
Al788      Al  0.82937111  0.87090075  0.08557159     1.55600
O789        O  0.75354857  0.79204261  0.10282969    -0.76500
C790        C  0.82311926  0.90878992  0.11661996     0.99400
C791        C  0.85349674  0.85061886  0.11688362     0.94300
O792        O  0.83317634  0.82599797  0.11303929    -0.81800
C793        C  0.89887015  0.04102741  0.15048019    -0.13900
C794        C  0.87680504  0.02597947  0.13459451     0.16500
C795        C  0.87061099  0.04055394  0.11759877     0.02800
C796        C  0.88849660  0.06934952  0.11497417    -0.12400
C797        C  0.91274363  0.08354552  0.12859606    -0.03400
C798        C  0.91689773  0.06974742  0.14756380     0.02100
C799        C  0.86304574  0.99525554  0.13379184     0.08900
N800        N  0.84835510  0.02607392  0.10102832     0.65300
H801        H  0.88516108  0.07998846  0.10047256     0.18200
N802        N  0.93984502  0.08457989  0.16343426     0.75700
H803        H  0.90308791  0.03016869  0.16424153     0.09700
C804        C  0.87882906  0.98267113  0.12880925     0.03400
C805        C  0.86532388  0.95405256  0.12471942    -0.05300
C806        C  0.83619879  0.93752833  0.12544550    -0.23700
C807        C  0.82038550  0.94969619  0.13185620     0.12600
C808        C  0.83394799  0.97849292  0.13596180    -0.12900
N809        N  0.90845570  0.99897046  0.12599160     0.64300
H810        H  0.87765427  0.94487111  0.11989436     0.12100
N811        N  0.79057286  0.93364841  0.13224982     0.60900
H812        H  0.82167407  0.98797134  0.13988438     0.08300
O813        O  0.95995440  0.08039466  0.16294962    -0.40500
O814        O  0.93750938  0.09764916  0.18065828    -0.39700
O815        O  0.82748047  0.02904814  0.10198646    -0.39700
O816        O  0.85197134  0.01495120  0.08297402    -0.37400
O817        O  0.77794231  0.92570344  0.15185839    -0.38300
O818        O  0.77713486  0.93234598  0.11385696    -0.34500
O819        O  0.92394955  0.99837990  0.14193021    -0.35900
O820        O  0.91869039  0.00898559  0.10589463    -0.40200
C821        C  0.76332648  0.93349813  0.96726724    -0.13900
C822        C  0.78325253  0.94108399  0.98515207     0.16500
C823        C  0.80871605  0.96658099  0.98350438     0.02800
C824        C  0.81420495  0.98383128  0.96378422    -0.12400
C825        C  0.79484390  0.97591764  0.94510764    -0.03400
C826        C  0.76888897  0.95054938  0.94726753     0.02100
C827        C  0.77929231  0.92079208  0.00375363     0.08900
N828        N  0.83003318  0.97412921  0.00089353     0.65300
H829        H  0.83441451  0.00286825  0.96261836     0.18200
N830        N  0.74850235  0.94098056  0.92886281     0.75700
H831        H  0.74387620  0.91363123  0.96831926     0.09700
C832        C  0.76825796  0.92093308  0.02613919     0.03400
C833        C  0.76987696  0.90517782  0.04469419    -0.05300
C834        C  0.78228079  0.88904475  0.04120680    -0.23700
C835        C  0.79126187  0.88724721  0.01810238     0.12600
C836        C  0.78989194  0.90328503  0.99973080    -0.12900
N837        N  0.75625383  0.93772127  0.03046158     0.64300
H838        H  0.76256902  0.90665302  0.06213872     0.12100
N839        N  0.80226381  0.86967446  0.01301991     0.60900
H840        H  0.79812119  0.90287768  0.98240264     0.08300
O841        O  0.72810355  0.94461035  0.93078059    -0.40500
O842        O  0.74775462  0.92417307  0.91352611    -0.39700
O843        O  0.82842891  0.98379419  0.02065811    -0.39700
O844        O  0.84894111  0.96854351  0.99740714    -0.37400
O845        O  0.78627067  0.84546637  0.00496217    -0.38300
O846        O  0.82834363  0.88012703  0.01187222    -0.34500
O847        O  0.73078435  0.92799438  0.02593764    -0.35900
O848        O  0.76929901  0.95952036  0.04285467    -0.40200
C849        C  0.90195862  0.11203667  0.00788519    -0.13900
C850        C  0.90893472  0.13577024  0.99437018     0.16500
C851        C  0.92610109  0.16240619  0.00419234     0.02800
C852        C  0.93729367  0.16491469  0.02691147    -0.12400
C853        C  0.93181618  0.14111218  0.03987928    -0.03400
C854        C  0.91317525  0.11441612  0.03044577     0.02100
C855        C  0.90057675  0.13142170  0.96924247     0.08900
N856        N  0.93299505  0.18699414  0.99108134     0.65300
H857        H  0.95131583  0.18557260  0.03396031     0.18200
N858        N  0.90520298  0.08949232  0.04352702     0.75700
H859        H  0.88849394  0.09143857  0.00045539     0.09700
C860        C  0.91673175  0.12671502  0.95288076     0.03400
C861        C  0.90468146  0.11262832  0.93180626    -0.05300
C862        C  0.87669840  0.10333155  0.92657290    -0.23700
C863        C  0.86167994  0.11130161  0.94145190     0.12600
C864        C  0.87361043  0.12494607  0.96294085    -0.12900
N865        N  0.94432741  0.13322980  0.95870810     0.64300
H866        H  0.91666038  0.10712885  0.92026578     0.12100
N867        N  0.83355027  0.10335655  0.93619132     0.60900
H868        H  0.86106980  0.12851357  0.97549617     0.08300
O869        O  0.88214682  0.07754795  0.05438217    -0.40500
O870        O  0.91724711  0.07606762  0.03934184    -0.39700
O871        O  0.92023092  0.19966513  0.99545824    -0.39700
O872        O  0.95530056  0.19908303  0.97915892    -0.37400
O873        O  0.81366913  0.08117630  0.94490925    -0.38300
O874        O  0.82867695  0.12101753  0.92706730    -0.34500
O875        O  0.94809576  0.11453441  0.96718141    -0.35900
O876        O  0.96502364  0.15585697  0.95154790    -0.40200
C877        C  0.06093963  0.16427300  0.00424479    -0.13900
C878        C  0.08939182  0.17619644  0.00913753     0.16500
C879        C  0.09963372  0.18821009  0.03149567     0.02800
C880        C  0.08099440  0.18633863  0.04914479    -0.12400
C881        C  0.05207490  0.17276524  0.04480584    -0.03400
C882        C  0.04229903  0.16265828  0.02164853     0.02100
C883        C  0.10699253  0.17334987  0.99105513     0.08900
N884        N  0.12869553  0.20147101  0.03678125     0.65300
H885        H  0.08915720  0.19463667  0.06657943     0.18200
N886        N  0.01352452  0.15035103  0.01546164     0.75700
H887        H  0.05300062  0.15540862  0.98688699     0.09700
C888        C  0.10469313  0.14731532  0.98764322     0.03400
C889        C  0.11475819  0.14206999  0.96672051    -0.05300
C890        C  0.12749705  0.16260604  0.94894882    -0.23700
C891        C  0.13206012  0.18958450  0.95354486     0.12600
C892        C  0.12157456  0.19461559  0.97439976    -0.12900
N893        N  0.09039067  0.12541586  0.00465213     0.64300
H894        H  0.11129538  0.12134037  0.96394062     0.12100
N895        N  0.14626005  0.21181813  0.93685951     0.60900
H896        H  0.12347772  0.21473839  0.97696482     0.08300
O897        O  0.99812276  0.12411878  0.01475327    -0.40500
O898        O  0.00533722  0.16523017  0.00578682    -0.39700
O899        O  0.14425581  0.22736809  0.03332858    -0.39700
O900        O  0.13751427  0.18875960  0.04908259    -0.37400
O901        O  0.13232513  0.21715018  0.92251326    -0.38300
O902        O  0.17195369  0.22918866  0.93950994    -0.34500
O903        O  0.06583302  0.10577010  0.00055269    -0.35900
O904        O  0.10098466  0.12739388  0.02482542    -0.40200
C905        C  0.96076567  0.07245147  0.84822367    -0.13900
C906        C  0.97697413  0.10126322  0.85218663     0.16500
C907        C  0.96384487  0.11680943  0.85495474     0.02800
C908        C  0.93470250  0.10311104  0.85527479    -0.12400
C909        C  0.91831708  0.07390677  0.85331995    -0.03400
C910        C  0.93160057  0.05862215  0.84880968     0.02100
C911        C  0.00686691  0.11351930  0.85745815     0.08900
N912        N  0.97980918  0.14619965  0.85912451     0.65300
H913        H  0.92497606  0.11523382  0.85885102     0.18200
N914        N  0.91591297  0.02899860  0.84574947     0.75700
H915        H  0.97083253  0.06039720  0.84611674     0.09700
C916        C  0.01520623  0.11260301  0.88079306     0.03400
C917        C  0.04288192  0.12063703  0.88536301    -0.05300
C918        C  0.06258295  0.12934739  0.86692594    -0.23700
C919        C  0.05428778  0.13053292  0.84354595     0.12600
C920        C  0.02651397  0.12281138  0.83901515    -0.12900
N921        N  0.99524342  0.10152165  0.89968875     0.64300
H922        H  0.04882974  0.11925408  0.90337002     0.12100
N923        N  0.07285725  0.13643756  0.82401789     0.60900
H924        H  0.01991552  0.12263058  0.82092875     0.08300
O925        O  0.91231293  0.01330973  0.86317868    -0.40500
O926        O  0.91132506  0.01900652  0.82506664    -0.39700
O927        O  0.98893100  0.16274226  0.84171075    -0.39700
O928        O  0.97998207  0.15555123  0.87953096    -0.37400
O929        O  0.07539590  0.11707033  0.81530256    -0.38300
O930        O  0.08234979  0.15909159  0.81280773    -0.34500
O931        O  0.98374593  0.07604175  0.90514313    -0.35900
O932        O  0.98821234  0.11685176  0.91027579    -0.40200
C933        C  0.97464448  0.88981474  0.10970846    -0.13900
C934        C  0.96656700  0.88767622  0.13346616     0.16500
C935        C  0.98725699  0.89932498  0.15121612     0.02800
C936        C  0.01563992  0.91342560  0.14475937    -0.12400
C937        C  0.02359204  0.91663696  0.12078442    -0.03400
C938        C  0.00267671  0.90421610  0.10318543     0.02100
C939        C  0.93635055  0.87522129  0.13808339     0.08900
N940        N  0.97986638  0.89702947  0.17571686     0.65300
H941        H  0.03144287  0.92263566  0.15843414     0.18200
N942        N  0.00941845  0.90608270  0.07849106     0.75700
H943        H  0.95891991  0.88105449  0.09591784     0.09700
C944        C  0.92543153  0.89253365  0.14263434     0.03400
C945        C  0.89725511  0.88264381  0.13818646    -0.05300
C946        C  0.87975279  0.85605843  0.12831399    -0.23700
C947        C  0.88994290  0.83770708  0.12620144     0.12600
C948        C  0.91807806  0.84741417  0.13121161    -0.12900
N949        N  0.94332801  0.92140014  0.14828096     0.64300
H950        H  0.88975290  0.89695236  0.14032483     0.12100
N951        N  0.87313177  0.81040009  0.11644659     0.60900
H952        H  0.92634650  0.83402961  0.12742297     0.08300
O953        O  0.00564531  0.88460034  0.06778450    -0.40500
O954        O  0.01182600  0.92628672  0.06651925    -0.39700
O955        O  0.97721381  0.87664324  0.18755173    -0.39700
O956        O  0.98300699  0.91821831  0.18652584    -0.37400
O957        O  0.86197802  0.78957094  0.13014776    -0.38300
O958        O  0.87451361  0.80668658  0.09453877    -0.34500
O959        O  0.95567433  0.93870433  0.13172427    -0.35900
O960        O  0.94126796  0.93018059  0.16834428    -0.40200
C961        C  0.14505707  0.03858988  0.99276656    -0.13900
C962        C  0.17380335  0.05429427  0.98844589     0.16500
C963        C  0.19242441  0.05698407  0.00645417     0.02800
C964        C  0.18194734  0.04323435  0.02821155    -0.12400
C965        C  0.15303683  0.02762222  0.03262851    -0.03400
C966        C  0.13452391  0.02562020  0.01457072     0.02100
C967        C  0.18293940  0.06971571  0.96575677     0.08900
N968        N  0.22189408  0.07377843  0.00301922     0.65300
H969        H  0.19650882  0.04529875  0.04186086     0.18200
N970        N  0.10494583  0.01090156  0.01803449     0.75700
H971        H  0.13058724  0.03717088  0.97927140     0.09700
C972        C  0.17514940  0.05502854  0.94410015     0.03400
C973        C  0.17342417  0.06809718  0.92357578    -0.05300
C974        C  0.17964841  0.09574922  0.92428126    -0.23700
C975        C  0.19020037  0.11132268  0.94531237     0.12600
C976        C  0.19190810  0.09821608  0.96588489    -0.12900
N977        N  0.16621572  0.02605236  0.94326672     0.64300
H978        H  0.16503501  0.05594174  0.90751026     0.12100
N979        N  0.19548999  0.13915844  0.94690597     0.60900
H980        H  0.19733534  0.10952476  0.98251743     0.08300
O981        O  0.08985947  0.98788395  0.00769014    -0.40500
O982        O  0.09375585  0.02367677  0.02658568    -0.39700
O983        O  0.23504170  0.09803475  0.01168234    -0.39700
O984        O  0.23522052  0.06250091  0.99600947    -0.37400
O985        O  0.22017795  0.15948664  0.94495441    -0.38300
O986        O  0.17687706  0.14320287  0.95518022    -0.34500
O987        O  0.14048631  0.00802138  0.94258439    -0.35900
O988        O  0.18373961  0.01891557  0.93854197    -0.40200
C989        C  0.10908202  0.08823595  0.11845091    -0.13900
C990        C  0.08814483  0.07912274  0.13591307     0.16500
C991        C  0.07991761  0.05384393  0.14792032     0.02800
C992        C  0.09022351  0.03688325  0.14055481    -0.12400
C993        C  0.10936599  0.04495215  0.12177781    -0.03400
C994        C  0.11986598  0.07148883  0.11144438     0.02100
C995        C  0.07083670  0.09239368  0.13707782     0.08900
N996        N  0.06019661  0.04455831  0.16696409     0.65300
H997        H  0.08229290  0.01668217  0.14888579     0.18200
N998        N  0.13897586  0.08031870  0.09198538     0.75700
H999        H  0.11530765  0.10725456  0.10867614     0.09700
C1000       C  0.08237381  0.12128143  0.14081973     0.03400
C1001       C  0.06605038  0.13344156  0.13697502    -0.05300
C1002       C  0.03843195  0.11741882  0.12879042    -0.23700
C1003       C  0.02658629  0.08830216  0.12611817     0.12600
C1004       C  0.04269148  0.07618113  0.13046669    -0.12900
N1005       N  0.11084893  0.13869683  0.14774824     0.64300
H1006       H  0.07558875  0.15581080  0.13902148     0.12100
N1007       N  0.99853565  0.07074248  0.11808519     0.60900
H1008       H  0.03356771  0.05409102  0.12702094     0.08300
O1009       O  0.16424347  0.09874028  0.09524361    -0.40500
O1010       O  0.12972110  0.07400114  0.07111162    -0.39700
O1011       O  0.03591879  0.02386937  0.16392606    -0.39700
O1012       O  0.06884928  0.05256760  0.18778361    -0.37400
O1013       O  0.99402706  0.06592119  0.09618691    -0.38300
O1014       O  0.98013437  0.05456749  0.13267822    -0.34500
O1015       O  0.12866096  0.15456976  0.13261924    -0.35900
O1016       O  0.11679423  0.14280886  0.16950507    -0.40200
C1017       C  0.84746223  0.77104258  0.96560406    -0.13900
C1018       C  0.83388492  0.78601841  0.96930516     0.16500
C1019       C  0.83194376  0.80142855  0.95045097     0.02800
C1020       C  0.84586427  0.80394320  0.92916234    -0.12400
C1021       C  0.86142370  0.79096595  0.92609507    -0.03400
C1022       C  0.86115553  0.77329309  0.94405689     0.02100
C1023       C  0.82899496  0.79182486  0.99384164     0.08900
N1024       N  0.81883978  0.81741770  0.95364718     0.65300
H1025       H  0.84645047  0.81804453  0.91569760     0.18200
N1026       N  0.87751851  0.76044532  0.94186265     0.75700
H1027       H  0.84954347  0.75960982  0.98017957     0.09700
C1028       C  0.80244445  0.77849717  0.00456079     0.03400
C1029       C  0.79904249  0.78717113  0.02705540    -0.05300
C1030       C  0.82178661  0.80932630  0.03893490    -0.23700
C1031       C  0.84855028  0.82203343  0.02824867     0.12600
C1032       C  0.85181959  0.81313613  0.00600186    -0.12900
N1033       N  0.77877791  0.75644991  0.99273943     0.64300
H1034       H  0.77836682  0.77715780  0.03486793     0.12100
N1035       N  0.87273043  0.84410471  0.03959964     0.60900
H1036       H  0.87233567  0.82349490  0.99782328     0.08300
O1037       O  0.86559456  0.73449225  0.93839586    -0.40500
O1038       O  0.90306663  0.77399869  0.94722506    -0.39700
O1039       O  0.83335914  0.84262159  0.95992845    -0.39700
O1040       O  0.79478981  0.80847229  0.94525456    -0.37400
O1041       O  0.88154121  0.86903831  0.03358048    -0.38300
O1042       O  0.88861474  0.83848519  0.05100870    -0.34500
O1043       O  0.77119430  0.73146497  0.99748892    -0.35900
O1044       O  0.76233211  0.76167519  0.98178309    -0.40200
C1045       C  0.84609087  0.86931757  0.84704629    -0.13900
C1046       C  0.86270900  0.89852955  0.84620390     0.16500
C1047       C  0.89198687  0.91107390  0.84600613     0.02800
C1048       C  0.90399623  0.89444612  0.84788119    -0.12400
C1049       C  0.88743462  0.86527574  0.85059197    -0.03400
C1050       C  0.85806569  0.85264378  0.84923146     0.02100
C1051       C  0.84939907  0.91535788  0.85035206     0.08900
N1052       N  0.90982459  0.94075151  0.84664096     0.65300
H1053       H  0.92652906  0.90471295  0.84891388     0.18200
N1054       N  0.83993840  0.82326232  0.85236657     0.75700
H1055       H  0.82356468  0.85946308  0.84756316     0.09700
C1056       C  0.84856293  0.93323433  0.83308567     0.03400
C1057       C  0.83802770  0.95051491  0.83909620    -0.05300
C1058       C  0.82858423  0.95045401  0.86217912    -0.23700
C1059       C  0.82839847  0.93176879  0.87907509     0.12600
C1060       C  0.83853600  0.91434094  0.87301221    -0.12900
N1061       N  0.85854574  0.93432758  0.80954220     0.64300
H1062       H  0.83859999  0.96505256  0.82605847     0.12100
N1063       N  0.81850442  0.93070946  0.90268182     0.60900
H1064       H  0.83891714  0.90063012  0.88640884     0.08300
O1065       O  0.82969243  0.80788452  0.83437898    -0.40500
O1066       O  0.82918830  0.81393731  0.87246212    -0.39700
O1067       O  0.91497679  0.95321498  0.86630400    -0.39700
O1068       O  0.92522131  0.95325595  0.82903016    -0.37400
O1069       O  0.79390967  0.91206344  0.90809517    -0.38300
O1070       O  0.83568287  0.94431812  0.91893682    -0.34500
O1071       O  0.84172990  0.91832802  0.79397398    -0.35900
O1072       O  0.88128750  0.95541313  0.80309008    -0.40200
C1073       C  0.99354305  0.85429615  0.98574103    -0.13900
C1074       C  0.02028335  0.85805886  0.98434217     0.16500
C1075       C  0.02855354  0.85054902  0.96345721     0.02800
C1076       C  0.01095372  0.84154778  0.94370624    -0.12400
C1077       C  0.98503549  0.84006257  0.94423569    -0.03400
C1078       C  0.97581948  0.84531993  0.96600418     0.02100
C1079       C  0.04056197  0.87416244  0.00322334     0.08900
N1080       N  0.05518500  0.85289632  0.96177263     0.65300
H1081       H  0.01834262  0.83701191  0.92752299     0.18200
N1082       N  0.94914695  0.84283220  0.96827451     0.75700
H1083       H  0.98701155  0.85993234  0.00185681     0.09700
C1084       C  0.05900063  0.90299041  0.00023846     0.03400
C1085       C  0.07540479  0.91899591  0.01916811    -0.05300
C1086       C  0.07313518  0.90718719  0.04169091    -0.23700
C1087       C  0.05626009  0.87784574  0.04417335     0.12600
C1088       C  0.03989943  0.86161700  0.02496616    -0.12900
N1089       N  0.05925042  0.91681395  0.97881072     0.64300
H1090       H  0.08868243  0.94127568  0.01652177     0.12100
N1091       N  0.05488635  0.86429677  0.06605674     0.60900
H1092       H  0.02599230  0.83933542  0.02724944     0.08300
O1093       O  0.92984364  0.82212610  0.97917648    -0.40500
O1094       O  0.94710642  0.86402043  0.96486435    -0.39700
O1095       O  0.05692840  0.83155152  0.96524423    -0.39700
O1096       O  0.07512152  0.87392525  0.95173869    -0.37400
O1097       O  0.03421639  0.85646988  0.07967505    -0.38300
O1098       O  0.07109173  0.85517617  0.06934407    -0.34500
O1099       O  0.04178881  0.92451366  0.97624844    -0.35900
O1100       O  0.08028438  0.92677057  0.96533373    -0.40200
C1101       C  0.04704159  0.93928824  0.83309005    -0.13900
C1102       C  0.05357827  0.96107827  0.84901253     0.16500
C1103       C  0.04031270  0.95504465  0.87124536     0.02800
C1104       C  0.02032728  0.92768262  0.87711605    -0.12400
C1105       C  0.01283697  0.90565338  0.86113189    -0.03400
C1106       C  0.02673343  0.91158200  0.83895400     0.02100
C1107       C  0.07286421  0.99050606  0.84244135     0.08900
N1108       N  0.04649315  0.97677769  0.88788217     0.65300
H1109       H  0.01032847  0.92380730  0.89433399     0.18200
N1110       N  0.01959642  0.89013185  0.82180145     0.75700
H1111       H  0.05712351  0.94389419  0.81587719     0.09700
C1112       C  0.10159535  0.00351941  0.84719469     0.03400
C1113       C  0.11772020  0.03263134  0.84883774    -0.05300
C1114       C  0.10540882  0.04889598  0.84605130    -0.23700
C1115       C  0.07756916  0.03603082  0.83811063     0.12600
C1116       C  0.06145300  0.00692090  0.83651415    -0.12900
N1117       N  0.11397544  0.98739972  0.85290594     0.64300
H1118       H  0.13919753  0.04221878  0.85465847     0.12100
N1119       N  0.06523209  0.05217059  0.83222546     0.60900
H1120       H  0.03943890  0.99702121  0.83235735     0.08300
O1121       O  0.03520374  0.88019336  0.81911963    -0.40500
O1122       O  0.00134027  0.88532294  0.80636848    -0.39700
O1123       O  0.03017622  0.98597846  0.88987507    -0.39700
O1124       O  0.06530451  0.98326569  0.90317095    -0.37400
O1125       O  0.06604539  0.05968705  0.81099300    -0.38300
O1126       O  0.04851012  0.05334466  0.84656888    -0.34500
O1127       O  0.12833510  0.98403849  0.83744923    -0.35900
O1128       O  0.11550721  0.98174370  0.87430573    -0.40200
C1129       C  0.95306503  0.79981657  0.70820946    -0.13900
C1130       C  0.97126898  0.81936424  0.72475915     0.16500
C1131       C  0.99758367  0.84116494  0.71707754     0.02800
C1132       C  0.00465287  0.84399820  0.69292754    -0.12400
C1133       C  0.98598063  0.82511481  0.67607887    -0.03400
C1134       C  0.96028638  0.80220480  0.68415043     0.02100
C1135       C  0.96290583  0.81592347  0.75011219     0.08900
N1136       N  0.01694282  0.86119831  0.73350857     0.65300
H1137       H  0.02444362  0.86168816  0.68728550     0.18200
N1138       N  0.94160693  0.78069527  0.66831901     0.75700
H1139       H  0.93323793  0.78233929  0.71407845     0.09700
C1140       C  0.94057942  0.81883165  0.75794300     0.03400
C1141       C  0.93297530  0.81507694  0.78198004    -0.05300
C1142       C  0.94709435  0.80809620  0.79862513    -0.23700
C1143       C  0.96890376  0.80421288  0.79044429     0.12600
C1144       C  0.97670221  0.80843019  0.76647352    -0.12900
N1145       N  0.92595243  0.82641217  0.74177522     0.64300
H1146       H  0.91627441  0.81823379  0.78766514     0.12100
N1147       N  0.98292006  0.79524245  0.80600127     0.60900
H1148       H  0.99337786  0.80536408  0.76050105     0.08300
O1149       O  0.94495902  0.76043462  0.66412021    -0.40500
O1150       O  0.91907555  0.77911213  0.66241485    -0.39700
O1151       O  0.03813335  0.86023805  0.73961140    -0.39700
O1152       O  0.01554531  0.88244174  0.73851449    -0.37400
O1153       O  0.97328117  0.76947123  0.80891209    -0.38300
O1154       O  0.00734936  0.81253433  0.81288384    -0.34500
O1155       O  0.90196943  0.80809188  0.73472350    -0.35900
O1156       O  0.93451465  0.85186927  0.73824224    -0.40200
C1157       C  0.78734254  0.84286083  0.21795407    -0.13900
C1158       C  0.78801160  0.81985168  0.22705506     0.16500
C1159       C  0.78372942  0.79818595  0.21164409     0.02800
C1160       C  0.78011633  0.80038227  0.18740715    -0.12400
C1161       C  0.78011116  0.82366183  0.17805766    -0.03400
C1162       C  0.78339715  0.84493816  0.19364380     0.02100
C1163       C  0.79244962  0.81837824  0.25274660     0.08900
N1164       N  0.78194684  0.77333865  0.22044050     0.65300
H1165       H  0.77725890  0.78366324  0.17578443     0.18200
N1166       N  0.78436402  0.86944250  0.18498316     0.75700
H1167       H  0.79041263  0.85952562  0.22973955     0.09700
C1168       C  0.81671616  0.81971303  0.26150669     0.03400
C1169       C  0.81929318  0.81656637  0.28583167    -0.05300
C1170       C  0.79851148  0.81313693  0.30188195    -0.23700
C1171       C  0.77466221  0.81282030  0.29308502     0.12600
C1172       C  0.77174964  0.81514376  0.26868037    -0.12900
N1173       N  0.83966940  0.82607486  0.24619311     0.64300
H1174       H  0.83820160  0.81791944  0.29229175     0.12100
N1175       N  0.75291139  0.80958325  0.30855464     0.60900
H1176       H  0.75310731  0.81426054  0.26209333     0.08300
O1177       O  0.80766004  0.89101096  0.18056361    -0.40500
O1178       O  0.76280815  0.87124461  0.18621867    -0.39700
O1179       O  0.75917619  0.75435964  0.22913781    -0.39700
O1180       O  0.80020199  0.76764177  0.21440689    -0.37400
O1181       O  0.75216760  0.83086169  0.31481976    -0.38300
O1182       O  0.73160379  0.78567263  0.31151595    -0.34500
O1183       O  0.85676603  0.85123849  0.24096071    -0.35900
O1184       O  0.84668684  0.80815990  0.24311380    -0.40200
C1185       C  0.90434327  0.79310314  0.44939421    -0.13900
C1186       C  0.89197089  0.78999434  0.47179044     0.16500
C1187       C  0.86508400  0.78629514  0.47318469     0.02800
C1188       C  0.85256159  0.78894087  0.45271229    -0.12400
C1189       C  0.86644888  0.79543100  0.43080255    -0.03400
C1190       C  0.89183415  0.79590990  0.42888278     0.02100
C1191       C  0.91020157  0.79889703  0.49294990     0.08900
N1192       N  0.85182257  0.78357910  0.49553732     0.65300
H1193       H  0.83292411  0.78834264  0.45432660     0.18200
N1194       N  0.90700357  0.80310879  0.40703344     0.75700
H1195       H  0.92514751  0.79629367  0.44816303     0.09700
C1196       C  0.90720805  0.78079624  0.51162380     0.03400
C1197       C  0.92406227  0.79158056  0.53188455    -0.05300
C1198       C  0.94361232  0.82030746  0.53398928    -0.23700
C1199       C  0.94690760  0.83816361  0.51491385     0.12600
C1200       C  0.93038849  0.82730893  0.49471030    -0.12900
N1201       N  0.88738617  0.75155794  0.51027207     0.64300
H1202       H  0.92124432  0.77755313  0.54631968     0.12100
N1203       N  0.96716651  0.86735552  0.51549667     0.60900
H1204       H  0.93287575  0.84140710  0.48041972     0.08300
O1205       O  0.92349056  0.82846770  0.40197870    -0.40500
O1206       O  0.90812798  0.78448433  0.39531851    -0.39700
O1207       O  0.85699294  0.80530064  0.50668301    -0.39700
O1208       O  0.83035182  0.76059618  0.50090205    -0.37400
O1209       O  0.95995119  0.88408630  0.52273512    -0.38300
O1210       O  0.98886926  0.87659155  0.50293751    -0.34500
O1211       O  0.89514723  0.73546001  0.50250172    -0.35900
O1212       O  0.86502703  0.74143823  0.52205662    -0.40200
C1213       C  0.78573283  0.01186155  0.70982088    -0.13900
C1214       C  0.79360109  0.99843362  0.72631552     0.16500
C1215       C  0.79737482  0.97655507  0.71874324     0.02800
C1216       C  0.79329191  0.96845285  0.69489458    -0.12400
C1217       C  0.78587616  0.98216293  0.67831927    -0.03400
C1218       C  0.78184757  0.00390620  0.68591638     0.02100
C1219       C  0.79718505  0.00703612  0.75147319     0.08900
N1220       N  0.80558589  0.96254272  0.73503525     0.65300
H1221       H  0.79690073  0.95206136  0.68916045     0.18200
N1222       N  0.77345509  0.01777208  0.66954743     0.75700
H1223       H  0.78251534  0.02849770  0.71557157     0.09700
C1224       C  0.82386455  0.02441791  0.76117290     0.03400
C1225       C  0.82667290  0.03083109  0.78536184    -0.05300
C1226       C  0.80317161  0.02057068  0.80022569    -0.23700
C1227       C  0.77630847  0.00430406  0.79015012     0.12600
C1228       C  0.77357723  0.99750767  0.76596751    -0.12900
N1229       N  0.84826545  0.03618015  0.74657328     0.64300
H1230       H  0.84747124  0.04366011  0.79257899     0.12100
N1231       N  0.75164584  0.99540179  0.80394944     0.60900
H1232       H  0.75293105  0.98469561  0.75845485     0.08300
O1233       O  0.78972975  0.04326681  0.66484059    -0.40500
O1234       O  0.75082969  0.00404763  0.65830669    -0.39700
O1235       O  0.78727400  0.93942253  0.74369415    -0.39700
O1236       O  0.83095625  0.96972030  0.73630934    -0.37400
O1237       O  0.74113561  0.01066126  0.80497909    -0.38300
O1238       O  0.73756157  0.97042756  0.81097159    -0.34500
O1239       O  0.85572065  0.05860894  0.73555755    -0.35900
O1240       O  0.86536189  0.02799987  0.74894735    -0.40200
C1241       C  0.75356369  0.83331910  0.47464352    -0.13900
C1242       C  0.77431860  0.84883414  0.49148788     0.16500
C1243       C  0.80161273  0.85443218  0.48765898     0.02800
C1244       C  0.80840918  0.84706008  0.46618562    -0.12400
C1245       C  0.78835249  0.83376833  0.44829095    -0.03400
C1246       C  0.76025785  0.82509937  0.45329840     0.02100
C1247       C  0.76860945  0.86196889  0.51169956     0.08900
N1248       N  0.82320196  0.86959819  0.50465362     0.65300
H1249       H  0.82994177  0.85304046  0.46307882     0.18200
N1250       N  0.73856109  0.80884981  0.43673193     0.75700
H1251       H  0.73233473  0.82828446  0.47780313     0.09700
C1252       C  0.76665135  0.88581420  0.50802951     0.03400
C1253       C  0.76896286  0.90261641  0.52728079    -0.05300
C1254       C  0.77282121  0.89579714  0.55031507    -0.23700
C1255       C  0.77200571  0.87044526  0.55423464     0.12600
C1256       C  0.77017210  0.85387358  0.53487520    -0.12900
N1257       N  0.76505495  0.89466409  0.48462626     0.64300
H1258       H  0.76946737  0.92199008  0.52404077     0.12100
N1259       N  0.77672871  0.86310247  0.57725077     0.60900
H1260       H  0.77187872  0.83564499  0.53780086     0.08300
O1261       O  0.72770445  0.82008331  0.42504971    -0.40500
O1262       O  0.72658228  0.78258148  0.43741613    -0.39700
O1263       O  0.83124283  0.85673174  0.51766465    -0.39700
O1264       O  0.83757078  0.89588481  0.50353172    -0.37400
O1265       O  0.80040930  0.86676025  0.58205681    -0.38300
O1266       O  0.75612895  0.84734215  0.59027120    -0.34500
O1267       O  0.74188701  0.88990283  0.47677530    -0.35900
O1268       O  0.78718498  0.91104887  0.47349691    -0.40200
C1269       C  0.87794102  0.91041670  0.63096257    -0.13900
C1270       C  0.86122029  0.88124855  0.63141915     0.16500
C1271       C  0.83196295  0.86865290  0.63277381     0.02800
C1272       C  0.81997521  0.88539876  0.63192275    -0.12400
C1273       C  0.83679201  0.91443879  0.62922143    -0.03400
C1274       C  0.86600692  0.92700418  0.62980517     0.02100
C1275       C  0.87546939  0.86523534  0.62886272     0.08900
N1276       N  0.81421252  0.83905123  0.63452920     0.65300
H1277       H  0.79744537  0.87551831  0.63157253     0.18200
N1278       N  0.88385144  0.95664256  0.62941792     0.75700
H1279       H  0.90048682  0.92036737  0.63050151     0.09700
C1280       C  0.87576721  0.85331384  0.60685609     0.03400
C1281       C  0.89580016  0.84589608  0.60256607    -0.05300
C1282       C  0.91600582  0.85084727  0.61961363    -0.23700
C1283       C  0.91435695  0.86060632  0.64220085     0.12600
C1284       C  0.89403243  0.86758331  0.64671193    -0.12900
N1285       N  0.85848460  0.85204840  0.58766237     0.64300
H1286       H  0.89728929  0.83883587  0.58501024     0.12100
N1287       N  0.93409428  0.86493633  0.66024922     0.60900
H1288       H  0.89408116  0.87683889  0.66361575     0.08300
O1289       O  0.89518761  0.96876580  0.61017995    -0.40500
O1290       O  0.89365512  0.96927579  0.64875088    -0.39700
O1291       O  0.80588458  0.82809748  0.65471591    -0.39700
O1292       O  0.80160050  0.82518752  0.61632818    -0.37400
O1293       O  0.95453344  0.88917557  0.66395251    -0.38300
O1294       O  0.92809048  0.84598690  0.67534734    -0.34500
O1295       O  0.86638970  0.87337525  0.57487171    -0.35900
O1296       O  0.83975394  0.82854724  0.58003048    -0.40200
C1297       C  0.13723382  0.97224377  0.21752826    -0.13900
C1298       C  0.15428069  0.00041973  0.22384691     0.16500
C1299       C  0.16766090  0.02049272  0.20588212     0.02800
C1300       C  0.16280899  0.01240664  0.18210183    -0.12400
C1301       C  0.14500600  0.98431598  0.17545219    -0.03400
C1302       C  0.13260980  0.96400122  0.19360609     0.02100
C1303       C  0.15767558  0.00851368  0.24922432     0.08900
N1304       N  0.18699279  0.04908977  0.21145974     0.65300
H1305       H  0.17320062  0.02851394  0.16875306     0.18200
N1306       N  0.11536475  0.93501245  0.18822257     0.75700
H1307       H  0.12721017  0.95657206  0.23127661     0.09700
C1308       C  0.14651133  0.02415615  0.25859126     0.03400
C1309       C  0.14972320  0.03107545  0.28272086    -0.05300
C1310       C  0.16309831  0.02186961  0.29794902    -0.23700
C1311       C  0.17456742  0.00654380  0.28858809     0.12600
C1312       C  0.17189746  0.00010370  0.26433864    -0.12900
N1313       N  0.12991564  0.03118067  0.24430265     0.64300
H1314       H  0.14024226  0.04226674  0.28987344     0.12100
N1315       N  0.18952576  0.99798315  0.30340033     0.60900
H1316       H  0.18080823  0.98834880  0.25728407     0.08300
O1317       O  0.08918384  0.92351704  0.18967094    -0.40500
O1318       O  0.12616238  0.92001256  0.18719599    -0.39700
O1319       O  0.21197813  0.05654566  0.21601254    -0.39700
O1320       O  0.18116288  0.06739758  0.20601894    -0.37400
O1321       O  0.21557173  0.01374904  0.30571814    -0.38300
O1322       O  0.17785350  0.97300821  0.31041536    -0.34500
O1323       O  0.10477186  0.01283210  0.24037995    -0.35900
O1324       O  0.13796164  0.05651309  0.24071757    -0.40200
C1325       C  0.10813364  0.94257727  0.52922382    -0.13900
C1326       C  0.09660092  0.93455511  0.50645163     0.16500
C1327       C  0.06920488  0.91179459  0.50390980     0.02800
C1328       C  0.05345600  0.89815906  0.52399954    -0.12400
C1329       C  0.06394533  0.90751242  0.54686489    -0.03400
C1330       C  0.09198248  0.92929935  0.54947634     0.02100
C1331       C  0.11135037  0.95211388  0.48562025     0.08900
N1332       N  0.05609183  0.90425355  0.48117242     0.65300
H1333       H  0.03225619  0.88099181  0.52171873     0.18200
N1334       N  0.10359981  0.93970602  0.57236263     0.75700
H1335       H  0.12916184  0.96022588  0.53129374     0.09700
C1336       C  0.11280254  0.97782054  0.48257958     0.03400
C1337       C  0.12050136  0.99121936  0.46057404    -0.05300
C1338       C  0.12728063  0.97958884  0.44152970    -0.23700
C1339       C  0.12818980  0.95516533  0.44514435     0.12600
C1340       C  0.11984010  0.94134415  0.46706792    -0.12900
N1341       N  0.10403388  0.98918371  0.50103295     0.64300
H1342       H  0.11994457  0.01014973  0.45801206     0.12100
N1343       N  0.13500069  0.94286502  0.42609343     0.60900
H1344       H  0.11859002  0.92147314  0.46924866     0.08300
O1345       O  0.12099276  0.93410458  0.58091627    -0.40500
O1346       O  0.10076903  0.95860307  0.58173326    -0.39700
O1347       O  0.05043817  0.88142797  0.47182316    -0.39700
O1348       O  0.04599248  0.91794838  0.47245659    -0.37400
O1349       O  0.16018862  0.95064696  0.42203911    -0.38300
O1350       O  0.11651632  0.92760848  0.41125354    -0.34500
O1351       O  0.12168702  0.00648117  0.51547034    -0.35900
O1352       O  0.07840679  0.98018846  0.50413967    -0.40200
C1353       C  0.02030383  0.90730005  0.35606567    -0.13900
C1354       C  0.00566128  0.91592314  0.34158923     0.16500
C1355       C  0.02042736  0.94246230  0.33080525     0.02800
C1356       C  0.04844169  0.96077556  0.33646820    -0.12400
C1357       C  0.06237755  0.95319278  0.35269008    -0.03400
C1358       C  0.04854908  0.92570235  0.36165740     0.02100
C1359       C  0.97465111  0.90041921  0.34278047     0.08900
N1360       N  0.00671096  0.95183684  0.31532235     0.65300
H1361       H  0.05892444  0.98174908  0.32921673     0.18200
N1362       N  0.06171669  0.91727326  0.37862212     0.75700
H1363       H  0.00916299  0.88716279  0.36480684     0.09700
C1364       C  0.95776776  0.87239065  0.33553524     0.03400
C1365       C  0.92893424  0.85778718  0.34036551    -0.05300
C1366       C  0.91670028  0.87057103  0.35283057    -0.23700
C1367       C  0.93356433  0.89898726  0.35924996     0.12600
C1368       C  0.96209791  0.91348253  0.35415958    -0.12900
N1369       N  0.96966851  0.85833082  0.32376559     0.64300
H1370       H  0.91638029  0.83597754  0.33546988     0.12100
N1371       N  0.92228249  0.91331986  0.37164280     0.60900
H1372       H  0.97482665  0.93483853  0.36024319     0.08300
O1373       O  0.05865582  0.91988429  0.40046590    -0.40500
O1374       O  0.07136219  0.90231058  0.37205059    -0.39700
O1375       O  0.00082443  0.96952445  0.32267651    -0.39700
O1376       O  0.00652866  0.94760863  0.29333059    -0.37400
O1377       O  0.91668330  0.92925044  0.36025736    -0.38300
O1378       O  0.92464275  0.91560986  0.39390154    -0.34500
O1379       O  0.97297289  0.84073768  0.33502130    -0.35900
O1380       O  0.97125836  0.85905900  0.30143030    -0.40200
C1381       C  0.13028298  0.18751458  0.72218122    -0.13900
C1382       C  0.15567385  0.19065267  0.72937902     0.16500
C1383       C  0.17606324  0.19578902  0.71215889     0.02800
C1384       C  0.17056843  0.19715562  0.68815383    -0.12400
C1385       C  0.14458065  0.19270487  0.68065533    -0.03400
C1386       C  0.12443843  0.18817623  0.69813670     0.02100
C1387       C  0.15869148  0.18429795  0.75430098     0.08900
N1388       N  0.20209391  0.19865969  0.71870247     0.65300
H1389       H  0.18650896  0.20074303  0.67528455     0.18200
N1390       N  0.09685031  0.18102027  0.69186903     0.75700
H1391       H  0.11409683  0.18262480  0.73520550     0.09700
C1392       C  0.15774603  0.20001287  0.77339761     0.03400
C1393       C  0.15886889  0.19203237  0.79668867    -0.05300
C1394       C  0.16012232  0.16799169  0.80156653    -0.23700
C1395       C  0.16015196  0.15179048  0.78229051     0.12600
C1396       C  0.15979240  0.16027211  0.75901017    -0.12900
N1397       N  0.15531917  0.22393185  0.76948884     0.64300
H1398       H  0.15830968  0.20463162  0.81103341     0.12100
N1399       N  0.15935232  0.12608838  0.78586920     0.60900
H1400       H  0.15926394  0.14734296  0.74445748     0.08300
O1401       O  0.09072401  0.19980413  0.69117094    -0.40500
O1402       O  0.07759067  0.15576341  0.69303754    -0.39700
O1403       O  0.20546519  0.17813617  0.71633865    -0.39700
O1404       O  0.22311445  0.22271729  0.72174653    -0.37400
O1405       O  0.13605000  0.10374276  0.78790188    -0.38300
O1406       O  0.18093365  0.12490281  0.78187891    -0.34500
O1407       O  0.13180466  0.22171272  0.77188384    -0.35900
O1408       O  0.17704001  0.24788059  0.76949001    -0.40200
C1409       C  0.16264565  0.16287432  0.49211839    -0.13900
C1410       C  0.17057902  0.14293271  0.49231666     0.16500
C1411       C  0.17556032  0.13411526  0.51416996     0.02800
C1412       C  0.17032670  0.14372684  0.53548294    -0.12400
C1413       C  0.15940108  0.16149733  0.53526178    -0.03400
C1414       C  0.15649954  0.17177735  0.51319477     0.02100
C1415       C  0.16764727  0.12753570  0.47011769     0.08900
N1416       N  0.18336349  0.11347127  0.51490188     0.65300
H1417       H  0.17261204  0.13546056  0.55215026     0.18200
N1418       N  0.14514250  0.18943201  0.51147856     0.75700
H1419       H  0.15872078  0.16967938  0.47533183     0.09700
C1420       C  0.14079363  0.10987941  0.46072172     0.03400
C1421       C  0.13748405  0.09418942  0.44053823    -0.05300
C1422       C  0.16052101  0.09571176  0.42921074    -0.23700
C1423       C  0.18755838  0.11406702  0.43788859     0.12600
C1424       C  0.19099466  0.12979768  0.45844900    -0.12900
N1425       N  0.11647684  0.10670350  0.47216792     0.64300
H1426       H  0.11658288  0.08018949  0.43391845     0.12100
N1427       N  0.21132145  0.11550540  0.42694881     0.60900
H1428       H  0.21172563  0.14338774  0.46550812     0.08300
O1429       O  0.11897425  0.17806671  0.51042620    -0.40500
O1430       O  0.16017056  0.21356003  0.50284387    -0.39700
O1431       O  0.20882730  0.12089999  0.51402238    -0.39700
O1432       O  0.16494562  0.08799669  0.51273266    -0.37400
O1433       O  0.22382695  0.13263161  0.41032028    -0.38300
O1434       O  0.21746207  0.09725586  0.43169906    -0.34500
O1435       O  0.10509276  0.11949837  0.46413243    -0.35900
O1436       O  0.10341454  0.08715490  0.48689229    -0.40200
C1437       C  0.98633595  0.11411496  0.64429499    -0.13900
C1438       C  0.97047977  0.09272800  0.62818463     0.16500
C1439       C  0.98359964  0.08759549  0.60930806     0.02800
C1440       C  0.01235476  0.10397718  0.60664106    -0.12400
C1441       C  0.02860874  0.12615706  0.62219607    -0.03400
C1442       C  0.01534572  0.13119923  0.64138319     0.02100
C1443       C  0.93998262  0.07663180  0.62991984     0.08900
N1444       N  0.96772063  0.06674339  0.59192426     0.65300
H1445       H  0.02183352  0.09997630  0.59154515     0.18200
N1446       N  0.03059926  0.15297449  0.65823597     0.75700
H1447       H  0.97602303  0.11801923  0.65877979     0.09700
C1448       C  0.92617508  0.04967799  0.63971005     0.03400
C1449       C  0.89791585  0.03176308  0.63500123    -0.05300
C1450       C  0.88332254  0.04028083  0.62049513    -0.23700
C1451       C  0.89639539  0.06832194  0.61305333     0.12600
C1452       C  0.92479007  0.08628619  0.61769499    -0.12900
N1453       N  0.94097024  0.03969304  0.65309930     0.64300
H1454       H  0.88763195  0.01055516  0.64154689     0.12100
N1455       N  0.88197213  0.07811430  0.59895061     0.60900
H1456       H  0.93545374  0.10716722  0.61026404     0.08300
O1457       O  0.02690665  0.14706485  0.68004771    -0.40500
O1458       O  0.04053661  0.17803112  0.65199768    -0.39700
O1459       O  0.95970756  0.07339587  0.57350013    -0.39700
O1460       O  0.96653609  0.04360264  0.59268555    -0.37400
O1461       O  0.87056889  0.08993078  0.60893287    -0.38300
O1462       O  0.88563252  0.08027448  0.57678686    -0.34500
O1463       O  0.93772844  0.03710930  0.67529008    -0.35900
O1464       O  0.95276433  0.02860921  0.64255116    -0.40200
C1465       C  0.10482217  0.05656991  0.64512869    -0.13900
C1466       C  0.09338647  0.03636597  0.62713071     0.16500
C1467       C  0.09466835  0.04500223  0.60349072     0.02800
C1468       C  0.10580312  0.07315088  0.59827401    -0.12400
C1469       C  0.11542163  0.09338929  0.61625134    -0.03400
C1470       C  0.11583672  0.08505381  0.63988900     0.02100
C1471       C  0.07654684  0.00620222  0.63285110     0.08900
N1472       N  0.08286148  0.02509375  0.58469212     0.65300
H1473       H  0.10562554  0.07899783  0.57997107     0.18200
N1474       N  0.12518037  0.10469365  0.65892081     0.75700
H1475       H  0.10373997  0.05006727  0.66339699     0.09700
C1476       C  0.08874397  0.98992577  0.63690414     0.03400
C1477       C  0.07206234  0.96066170  0.63621962    -0.05300
C1478       C  0.04347423  0.94747570  0.63091557    -0.23700
C1479       C  0.03099261  0.96383289  0.62910667     0.12600
C1480       C  0.04752752  0.99290729  0.63032858    -0.12900
N1481       N  0.11825749  0.00271719  0.63942650     0.64300
H1482       H  0.08201838  0.94842141  0.63739286     0.12100
N1483       N  0.00181643  0.95132268  0.62450989     0.60900
H1484       H  0.03791456  0.00527743  0.62750622     0.08300
O1485       O  0.10771266  0.10814737  0.67027713    -0.40500
O1486       O  0.14925375  0.11394703  0.66738595    -0.39700
O1487       O  0.05842760  0.01705440  0.57770459    -0.39700
O1488       O  0.09851868  0.02016749  0.57210568    -0.37400
O1489       O  0.98507694  0.94448569  0.64171951    -0.38300
O1490       O  0.99377944  0.95300492  0.60401284    -0.34500
O1491       O  0.12836024  0.00311547  0.65950839    -0.35900
O1492       O  0.13333117  0.00831398  0.62117096    -0.40200
C1493       C  0.95804444  0.17902860  0.21354210    -0.13900
C1494       C  0.97952805  0.18321729  0.22878562     0.16500
C1495       C  0.00532655  0.18921731  0.21912030     0.02800
C1496       C  0.00884714  0.19000436  0.19438727    -0.12400
C1497       C  0.98689674  0.18469857  0.17895961    -0.03400
C1498       C  0.96137983  0.17972913  0.18894535     0.02100
C1499       C  0.97332511  0.17895858  0.25451500     0.08900
N1500       N  0.02762802  0.19313104  0.23410290     0.65300
H1501       H  0.02851727  0.19374321  0.18729405     0.18200
N1502       N  0.93829883  0.17480295  0.17449437     0.75700
H1503       H  0.93817568  0.17450658  0.22084783     0.09700
C1504       C  0.98209068  0.20151996  0.27019720     0.03400
C1505       C  0.97354701  0.19652632  0.29399035    -0.05300
C1506       C  0.95547257  0.16926564  0.30246585    -0.23700
C1507       C  0.94632449  0.14668227  0.28648199     0.12600
C1508       C  0.95555707  0.15173179  0.26287032    -0.12900
N1509       N  0.99828124  0.22964352  0.26192687     0.64300
H1510       H  0.98063507  0.21421817  0.30577671     0.12100
N1511       N  0.92768493  0.11850519  0.29378639     0.60900
H1512       H  0.94823983  0.13427449  0.25076747     0.08300
O1513       O  0.93437734  0.19465280  0.17009427    -0.40500
O1514       O  0.91906924  0.15005206  0.17035227    -0.39700
O1515       O  0.03068711  0.17270513  0.23834806    -0.39700
O1516       O  0.04755485  0.21755252  0.23817465    -0.37400
O1517       O  0.90171467  0.10835340  0.29198594    -0.38300
O1518       O  0.93686723  0.10227363  0.29646319    -0.34500
O1519       O  0.98596949  0.24176010  0.25444618    -0.35900
O1520       O  0.02388281  0.24396968  0.26696819    -0.40200
C1521       C  0.85629405  0.09934410  0.47017832    -0.13900
C1522       C  0.84385110  0.07028523  0.47175195     0.16500
C1523       C  0.84320346  0.05504809  0.45167987     0.02800
C1524       C  0.85737598  0.06920688  0.43110603    -0.12400
C1525       C  0.87167376  0.09845859  0.43002060    -0.03400
C1526       C  0.86988780  0.11352068  0.44927474     0.02100
C1527       C  0.83652877  0.05655115  0.49516324     0.08900
N1528       N  0.83037201  0.02537177  0.45276310     0.65300
H1529       H  0.85877134  0.05743317  0.41643577     0.18200
N1530       N  0.88440761  0.14329140  0.44885320     0.75700
H1531       H  0.85700792  0.11116497  0.48566946     0.09700
C1532       C  0.85702880  0.05514138  0.50844687     0.03400
C1533       C  0.84946076  0.03879573  0.52887838    -0.05300
C1534       C  0.82163967  0.02392890  0.53675250    -0.23700
C1535       C  0.80121807  0.02624703  0.52394312     0.12600
C1536       C  0.80878724  0.04232900  0.50310400    -0.12900
N1537       N  0.88557532  0.06965699  0.50099005     0.64300
H1538       H  0.86558527  0.03778633  0.53867247     0.12100
N1539       N  0.77262547  0.01144601  0.53115438     0.60900
H1540       H  0.79289449  0.04312696  0.49276711     0.08300
O1541       O  0.87171047  0.15541628  0.44240997    -0.40500
O1542       O  0.90748901  0.15701806  0.45940673    -0.39700
O1543       O  0.80416956  0.01005539  0.45149916    -0.39700
O1544       O  0.84489564  0.01461167  0.45734611    -0.37400
O1545       O  0.76254682  0.02449070  0.54119629    -0.38300
O1546       O  0.75641020  0.98722074  0.52323262    -0.34500
O1547       O  0.90210504  0.09383745  0.50884669    -0.35900
O1548       O  0.89526950  0.05650675  0.49051797    -0.40200
C1549       C  0.03506914  0.20077410  0.53437176    -0.13900
C1550       C  0.04577283  0.20234103  0.51143285     0.16500
C1551       C  0.07343485  0.20795707  0.50911608     0.02800
C1552       C  0.08866512  0.20962812  0.52939253    -0.12400
C1553       C  0.07648718  0.20434210  0.55190791    -0.03400
C1554       C  0.04998528  0.20120193  0.55452200     0.02100
C1555       C  0.02753312  0.19640725  0.49023321     0.08900
N1556       N  0.08540070  0.20923024  0.48635588     0.65300
H1557       H  0.10933556  0.21276605  0.52743939     0.18200
N1558       N  0.03738493  0.19692603  0.57740029     0.75700
H1559       H  0.01448846  0.19785303  0.53663998     0.09700
C1560       C  0.00097413  0.17183905  0.48877783     0.03400
C1561       C  0.98597049  0.16487415  0.46755102    -0.05300
C1562       C  0.99681407  0.18167209  0.44719547    -0.23700
C1563       C  0.02248745  0.20728996  0.44914151     0.12600
C1564       C  0.03739812  0.21443093  0.47055061    -0.12900
N1565       N  0.98960979  0.15265986  0.50816083     0.64300
H1566       H  0.96614668  0.14535462  0.46681876     0.12100
N1567       N  0.03427184  0.22593518  0.42946325     0.60900
H1568       H  0.05728061  0.23384956  0.47155372     0.08300
O1569       O  0.01962794  0.17254005  0.58413898    -0.40500
O1570       O  0.04019450  0.21759386  0.58887651    -0.39700
O1571       O  0.10763225  0.23108354  0.48016192    -0.39700
O1572       O  0.07650762  0.18723732  0.47429461    -0.37400
O1573       O  0.05287680  0.22558500  0.41701893    -0.38300
O1574       O  0.03051895  0.24626591  0.42769002    -0.34500
O1575       O  0.96971765  0.15114198  0.52005122    -0.35900
O1576       O  0.99501582  0.13343172  0.50993598    -0.40200
C1577       C  0.85472567  0.00855462  0.35243030    -0.13900
C1578       C  0.86999884  0.99522693  0.35530820     0.16500
C1579       C  0.89928815  0.01155655  0.35678649     0.02800
C1580       C  0.91259357  0.04067380  0.35742514    -0.12400
C1581       C  0.89726732  0.05421872  0.35646428    -0.03400
C1582       C  0.86809735  0.03781601  0.35255296     0.02100
C1583       C  0.85525445  0.96443164  0.35807537     0.08900
N1584       N  0.91568003  0.99882329  0.35939243     0.65300
H1585       H  0.93500535  0.05263385  0.35995059     0.18200
N1586       N  0.85160564  0.05034797  0.34926439     0.75700
H1587       H  0.83223692  0.99615352  0.35056627     0.09700
C1588       C  0.83931511  0.95128661  0.37858746     0.03400
C1589       C  0.82815520  0.92261170  0.38210103    -0.05300
C1590       C  0.83278195  0.90677539  0.36550149    -0.23700
C1591       C  0.84735152  0.91954638  0.34438424     0.12600
C1592       C  0.85853183  0.94822973  0.34084252    -0.12900
N1593       N  0.83647353  0.96725463  0.39697362     0.64300
H1594       H  0.81760354  0.91312807  0.39865316     0.12100
N1595       N  0.85111852  0.90361353  0.32652717     0.60900
H1596       H  0.87035756  0.95802897  0.32485142     0.08300
O1597       O  0.83727189  0.05103504  0.36627479    -0.40500
O1598       O  0.84710145  0.05553507  0.32851838    -0.39700
O1599       O  0.92897241  0.99758031  0.34179211    -0.39700
O1600       O  0.92115491  0.99393535  0.37988763    -0.37400
O1601       O  0.83205901  0.89026894  0.31152620    -0.38300
O1602       O  0.87496482  0.90697639  0.32306323    -0.34500
O1603       O  0.81322628  0.96532969  0.40035548    -0.35900
O1604       O  0.85552786  0.97929673  0.41222313    -0.40200
C1605       C  0.10144242  0.12249807  0.34372315    -0.13900
C1606       C  0.07290071  0.10842143  0.34934955     0.16500
C1607       C  0.05849875  0.07940421  0.35318695     0.02800
C1608       C  0.07298000  0.06522262  0.35272586    -0.12400
C1609       C  0.10194135  0.07946137  0.34887335    -0.03400
C1610       C  0.11604202  0.10819233  0.34327347     0.02100
C1611       C  0.05823648  0.12397129  0.35232127     0.08900
N1612       N  0.02964398  0.06448156  0.35970278     0.65300
H1613       H  0.06181189  0.04319061  0.35716848     0.18200
N1614       N  0.14539944  0.12351222  0.33884559     0.75700
H1615       H  0.11257925  0.14479285  0.34048274     0.09700
C1616       C  0.06164028  0.13944865  0.37308138     0.03400
C1617       C  0.04362112  0.14934169  0.37764282    -0.05300
C1618       C  0.02233895  0.14427623  0.36168951    -0.23700
C1619       C  0.02005191  0.13033874  0.34024286     0.12600
C1620       C  0.03794011  0.12023116  0.33574655    -0.12900
N1621       N  0.08171016  0.14323344  0.39060671     0.64300
H1622       H  0.04521945  0.15963336  0.39436783     0.12100
N1623       N  0.99773311  0.12348984  0.32419029     0.60900
H1624       H  0.03496830  0.10806372  0.31988087     0.08300
O1625       O  0.16192874  0.13773796  0.35528257    -0.40500
O1626       O  0.15413582  0.12757181  0.31772232    -0.39700
O1627       O  0.01161498  0.04837658  0.34490221    -0.39700
O1628       O  0.02290004  0.06318393  0.38124333    -0.37400
O1629       O  0.00200912  0.13884479  0.30636169    -0.38300
O1630       O  0.97632317  0.09933657  0.32484275    -0.34500
O1631       O  0.10396450  0.16661683  0.39242014    -0.35900
O1632       O  0.07474058  0.12558045  0.40709448    -0.40200
C1633       C  0.46259978  0.60585187  0.13198753    -0.13900
C1634       C  0.45062750  0.61252814  0.15084197     0.16500
C1635       C  0.44708623  0.63554429  0.14873536     0.02800
C1636       C  0.45319727  0.64997412  0.12733771    -0.12400
C1637       C  0.46437226  0.64302998  0.10802470    -0.03400
C1638       C  0.47013713  0.62136668  0.11078809     0.02100
C1639       C  0.43789481  0.59330641  0.17116291     0.08900
N1640       N  0.43581594  0.64356121  0.16781212     0.65300
H1641       H  0.44845335  0.66639258  0.12569464     0.18200
N1642       N  0.48194247  0.61373946  0.09189898     0.75700
H1643       H  0.46533073  0.58807820  0.13349974     0.09700
C1644       C  0.41168741  0.56878541  0.16856116     0.03400
C1645       C  0.39705928  0.55360933  0.18864107    -0.05300
C1646       C  0.40730705  0.56322170  0.21152980    -0.23700
C1647       C  0.43445484  0.58668001  0.21404545     0.12600
C1648       C  0.44956444  0.60148217  0.19383162    -0.12900
N1649       N  0.39812090  0.56114595  0.14600424     0.64300
H1650       H  0.37636525  0.53555114  0.18647789     0.12100
N1651       N  0.44553097  0.59780459  0.23687010     0.60900
H1652       H  0.46960221  0.62054000  0.19594586     0.08300
O1653       O  0.46619526  0.59323427  0.07887016    -0.40500
O1654       O  0.50793777  0.62352978  0.09142013    -0.39700
O1655       O  0.45214359  0.66312979  0.18141417    -0.39700
O1656       O  0.41006740  0.63500305  0.16826179    -0.37400
O1657       O  0.45984762  0.58964374  0.24758356    -0.38300
O1658       O  0.44658357  0.61987259  0.24352424    -0.34500
O1659       O  0.39315068  0.53874860  0.13622815    -0.35900
O1660       O  0.38709781  0.57424908  0.13785869    -0.40200
C1661       C  0.65870047  0.76827983  0.08876531    -0.13900
C1662       C  0.65214354  0.74552988  0.07410549     0.16500
C1663       C  0.67256643  0.73837177  0.06984562     0.02800
C1664       C  0.69963192  0.75510811  0.07917436    -0.12400
C1665       C  0.70672996  0.77924714  0.09231583    -0.03400
C1666       C  0.68556676  0.78519247  0.09769628     0.02100
C1667       C  0.62528685  0.73292512  0.06112504     0.08900
N1668       N  0.66679703  0.71549092  0.05478623     0.65300
H1669       H  0.71553547  0.75021280  0.07485960     0.18200
N1670       N  0.69117528  0.80897679  0.11152335     0.75700
H1671       H  0.64310593  0.77386155  0.09229320     0.09700
C1672       C  0.60189501  0.70694613  0.06743612     0.03400
C1673       C  0.57543465  0.69922261  0.05846465    -0.05300
C1674       C  0.57171990  0.71750529  0.04394439    -0.23700
C1675       C  0.59547644  0.74284891  0.03667804     0.12600
C1676       C  0.62188279  0.75004221  0.04500929    -0.12900
N1677       N  0.60411227  0.68946004  0.08464536     0.64300
H1678       H  0.55744080  0.67981953  0.06441150     0.12100
N1679       N  0.59310194  0.76218347  0.02173250     0.60900
H1680       H  0.63970836  0.77013595  0.04012135     0.08300
O1681       O  0.69564942  0.83093915  0.10117588    -0.40500
O1682       O  0.68557175  0.80602737  0.13339577    -0.39700
O1683       O  0.67282430  0.71988667  0.03303128    -0.39700
O1684       O  0.66201540  0.69284047  0.06393400    -0.37400
O1685       O  0.59174242  0.78199778  0.03101201    -0.38300
O1686       O  0.59882880  0.76328013  0.99995983    -0.34500
O1687       O  0.59980020  0.69205010  0.10620739    -0.35900
O1688       O  0.60335017  0.66755788  0.07791525    -0.40200
C1689       C  0.22990372  0.45449289  0.12092632    -0.13900
C1690       C  0.22326534  0.45890772  0.14391234     0.16500
C1691       C  0.20143569  0.46431339  0.14697136     0.02800
C1692       C  0.18792556  0.46682494  0.12712153    -0.12400
C1693       C  0.19639962  0.46515984  0.10401762    -0.03400
C1694       C  0.21693579  0.45781837  0.10099661     0.02100
C1695       C  0.24330211  0.46432546  0.16331235     0.08900
N1696       N  0.19511631  0.47089907  0.16975425     0.65300
H1697       H  0.17210658  0.47226806  0.12985504     0.18200
N1698       N  0.22718407  0.45681602  0.07799921     0.75700
H1699       H  0.24696192  0.45080002  0.11835471     0.09700
C1700       C  0.23610500  0.44829367  0.18428993     0.03400
C1701       C  0.25527917  0.45702561  0.20309404    -0.05300
C1702       C  0.28148700  0.48167071  0.20133288    -0.23700
C1703       C  0.28905421  0.49674611  0.17981222     0.12600
C1704       C  0.27007471  0.48790127  0.16111084    -0.12900
N1705       N  0.20954828  0.42326041  0.18678256     0.64300
H1706       H  0.24917151  0.44521544  0.21950074     0.12100
N1707       N  0.31602228  0.52102310  0.17647162     0.60900
H1708       H  0.27594783  0.50026714  0.14499623     0.08300
O1709       O  0.22021911  0.43351262  0.06887446    -0.40500
O1710       O  0.24707406  0.47882197  0.06903719    -0.39700
O1711       O  0.21014355  0.49532209  0.17774524    -0.39700
O1712       O  0.17121237  0.45523890  0.17859784    -0.37400
O1713       O  0.33280636  0.51964803  0.16235471    -0.38300
O1714       O  0.31970114  0.54465071  0.18164142    -0.34500
O1715       O  0.20631679  0.40068005  0.17884513    -0.35900
O1716       O  0.19208572  0.42247695  0.20145595    -0.40200
C1717       C  0.29172284  0.55794536  0.00455384    -0.13900
C1718       C  0.30888787  0.57083881  0.02428419     0.16500
C1719       C  0.29705816  0.56566243  0.04705240     0.02800
C1720       C  0.26842203  0.54835052  0.04986157    -0.12400
C1721       C  0.25072745  0.53598510  0.03027028    -0.03400
C1722       C  0.26266125  0.54042701  0.00737402     0.02100
C1723       C  0.33868862  0.59195184  0.02139125     0.08900
N1724       N  0.31385906  0.57877091  0.06750262     0.65300
H1725       H  0.25999287  0.54496202  0.06769653     0.18200
N1726       N  0.24566316  0.52850151  0.98684484     0.75700
H1727       H  0.30079236  0.56214662  0.98693760     0.09700
C1728       C  0.35926198  0.58464555  0.02170957     0.03400
C1729       C  0.38729856  0.60537783  0.02484208    -0.05300
C1730       C  0.39515584  0.63345393  0.02800597    -0.23700
C1731       C  0.37448796  0.64083462  0.02582238     0.12600
C1732       C  0.34659264  0.62005514  0.02257591    -0.12900
N1733       N  0.35179678  0.55611365  0.02042699     0.64300
H1734       H  0.40268592  0.59916841  0.02616800     0.12100
N1735       N  0.38113192  0.66912333  0.02759470     0.60900
H1736       H  0.33075869  0.62575519  0.02230587     0.08300
O1737       O  0.24290228  0.50644322  0.97810307    -0.40500
O1738       O  0.23869798  0.54292265  0.97474480    -0.39700
O1739       O  0.31530139  0.60043777  0.07580778    -0.39700
O1740       O  0.32230699  0.56574802  0.07982397    -0.37400
O1741       O  0.38429961  0.68279337  0.00886883    -0.38300
O1742       O  0.37716449  0.67785460  0.04697929    -0.34500
O1743       O  0.35486495  0.54658228  0.00112369    -0.35900
O1744       O  0.34765258  0.54237430  0.03930030    -0.40200
C1745       C  0.08946158  0.35566188  0.07549641    -0.13900
C1746       C  0.06363512  0.33829637  0.06459033     0.16500
C1747       C  0.05305795  0.35036540  0.04891531     0.02800
C1748       C  0.06901677  0.37907154  0.04361944    -0.12400
C1749       C  0.09559685  0.39595578  0.05354722    -0.03400
C1750       C  0.10548774  0.38403821  0.07003427     0.02100
C1751       C  0.04858272  0.30785857  0.07017827     0.08900
N1752       N  0.02681304  0.33360715  0.03742061     0.65300
H1753       H  0.06109604  0.38792172  0.03099977     0.18200
N1754       N  0.13151759  0.40067352  0.08195349     0.75700
H1755       H  0.09734898  0.34708371  0.08841390     0.09700
C1756       C  0.06225272  0.29265886  0.06791402     0.03400
C1757       C  0.04971117  0.26539123  0.07653963    -0.05300
C1758       C  0.02329431  0.25221112  0.08742773    -0.23700
C1759       C  0.00897751  0.26696519  0.08881483     0.12600
C1760       C  0.02177099  0.29459348  0.08034418    -0.12900
N1761       N  0.08905503  0.30466294  0.05684663     0.64300
H1762       H  0.06095418  0.25447004  0.07461121     0.12100
N1763       N  0.98205567  0.25479723  0.09962161     0.60900
H1764       H  0.01114361  0.30607197  0.08259487     0.08300
O1765       O  0.15237296  0.39905040  0.07586948    -0.40500
O1766       O  0.13208800  0.41232997  0.10127506    -0.39700
O1767       O  0.00600416  0.33495369  0.04417116    -0.39700
O1768       O  0.02593644  0.32244346  0.01774449    -0.37400
O1769       O  0.98016132  0.25904319  0.12133492    -0.38300
O1770       O  0.96064586  0.24500392  0.08669593    -0.34500
O1771       O  0.11015596  0.31061269  0.06927884    -0.35900
O1772       O  0.09056979  0.30351316  0.03459045    -0.40200
C1773       C  0.22101343  0.58332626  0.29076067    -0.13900
C1774       C  0.20658444  0.55449185  0.29484515     0.16500
C1775       C  0.17765894  0.54027967  0.29927407     0.02800
C1776       C  0.16343992  0.55479137  0.29790295    -0.12400
C1777       C  0.17764791  0.58341792  0.29233960    -0.03400
C1778       C  0.20700931  0.59792298  0.28970394     0.02100
C1779       C  0.22265738  0.54028478  0.29315780     0.08900
N1780       N  0.16251471  0.51134871  0.30545424     0.65300
H1781       H  0.14100013  0.54328879  0.30034947     0.18200
N1782       N  0.22295215  0.62729969  0.28524563     0.75700
H1783       H  0.24335708  0.59453141  0.28764639     0.09700
C1784       C  0.21850648  0.52187749  0.27430775     0.03400
C1785       C  0.23845731  0.51438717  0.26987460    -0.05300
C1786       C  0.26302970  0.52601072  0.28322385    -0.23700
C1787       C  0.26644934  0.54310716  0.30275827     0.12600
C1788       C  0.24607189  0.54972841  0.30781309    -0.12900
N1789       N  0.19624937  0.51351671  0.25774474     0.64300
H1790       H  0.23596507  0.50151199  0.25460568     0.12100
N1791       N  0.29107055  0.55487076  0.31696165     0.60900
H1792       H  0.24951062  0.56396344  0.32224308     0.08300
O1793       O  0.23134759  0.63602272  0.26446586    -0.40500
O1794       O  0.23348372  0.64393966  0.30245305    -0.39700
O1795       O  0.16279697  0.50441772  0.32669857    -0.39700
O1796       O  0.14372095  0.49408788  0.29173715    -0.37400
O1797       O  0.29085885  0.54293453  0.33601520    -0.38300
O1798       O  0.31048858  0.57963825  0.31318738    -0.34500
O1799       O  0.19876902  0.53019290  0.24149604    -0.35900
O1800       O  0.17800272  0.48797085  0.25572707    -0.40200
C1801       C  0.11202450  0.52373735  0.19448815    -0.13900
C1802       C  0.09261863  0.52240388  0.17802287     0.16500
C1803       C  0.07519928  0.53273933  0.18456084     0.02800
C1804       C  0.07950453  0.54680770  0.20623025    -0.12400
C1805       C  0.10080367  0.55048818  0.22159645    -0.03400
C1806       C  0.11615283  0.53753585  0.21616712     0.02100
C1807       C  0.09448140  0.51440900  0.15321887     0.08900
N1808       N  0.05340322  0.52950017  0.16925952     0.65300
H1809       H  0.06735674  0.55637822  0.21034068     0.18200
N1810       N  0.13663465  0.53899977  0.23222055     0.75700
H1811       H  0.12525313  0.51551125  0.18988601     0.09700
C1812       C  0.10739104  0.53517099  0.13558164     0.03400
C1813       C  0.11478126  0.52878813  0.11381131    -0.05300
C1814       C  0.10990458  0.50202312  0.10906724    -0.23700
C1815       C  0.09562335  0.48075828  0.12610388     0.12600
C1816       C  0.08812298  0.48712996  0.14805376    -0.12900
N1817       N  0.11607520  0.56360033  0.14041619     0.64300
H1818       H  0.12596886  0.54539954  0.10097947     0.12100
N1819       N  0.09107966  0.45344852  0.12238809     0.60900
H1820       H  0.07874241  0.47112673  0.16160740     0.08300
O1821       O  0.16205838  0.55707826  0.22905158    -0.40500
O1822       O  0.13007406  0.51896373  0.24627041    -0.39700
O1823       O  0.03010149  0.50699831  0.16997029    -0.39700
O1824       O  0.05498771  0.55078438  0.15993104    -0.37400
O1825       O  0.10928705  0.44801470  0.12910984    -0.38300
O1826       O  0.06696736  0.43369085  0.11714974    -0.34500
O1827       O  0.13953085  0.57914440  0.14994621    -0.35900
O1828       O  0.10421425  0.57458524  0.12987000    -0.40200
C1829       C  0.25199559  0.72759294  0.30825958    -0.13900
C1830       C  0.26966681  0.74137138  0.28892706     0.16500
C1831       C  0.25835870  0.73788433  0.26605831     0.02800
C1832       C  0.22985206  0.71995135  0.26263282    -0.12400
C1833       C  0.21228747  0.70482614  0.28160591    -0.03400
C1834       C  0.22328663  0.70921960  0.30474888     0.02100
C1835       C  0.30016949  0.75706745  0.29195391     0.08900
N1836       N  0.27595705  0.75042911  0.24583798     0.65300
H1837       H  0.22164872  0.71648835  0.24473777     0.18200
N1838       N  0.20627862  0.69309508  0.32428971     0.75700
H1839       H  0.26072810  0.72998753  0.32584333     0.09700
C1840       C  0.31517097  0.78630600  0.29355834     0.03400
C1841       C  0.34419863  0.80097873  0.29125322    -0.05300
C1842       C  0.35866481  0.78688303  0.28729959    -0.23700
C1843       C  0.34371852  0.75739132  0.28789614     0.12600
C1844       C  0.31457223  0.74276598  0.28983542    -0.12900
N1845       N  0.30108613  0.80141338  0.29625871     0.64300
H1846       H  0.35520441  0.82358312  0.29119870     0.12100
N1847       N  0.35773163  0.74207356  0.28607143     0.60900
H1848       H  0.30302580  0.72016891  0.28889174     0.08300
O1849       O  0.20488478  0.67049911  0.32966703    -0.40500
O1850       O  0.19682612  0.70367836  0.33849930    -0.39700
O1851       O  0.28602078  0.73762865  0.23533806    -0.39700
O1852       O  0.27646426  0.77080099  0.23569658    -0.37400
O1853       O  0.37473410  0.74446077  0.30192283    -0.38300
O1854       O  0.35317229  0.72615669  0.26862314    -0.34500
O1855       O  0.29851229  0.80905593  0.31667900    -0.35900
O1856       O  0.29666814  0.81200254  0.27827261    -0.40200
C1857       C  0.51664646  0.77461352  0.14332388    -0.13900
C1858       C  0.51976793  0.80069117  0.13898739     0.16500
C1859       C  0.52486656  0.81120532  0.11562321     0.02800
C1860       C  0.52369788  0.79421784  0.09678558    -0.12400
C1861       C  0.51754148  0.76683965  0.10095428    -0.03400
C1862       C  0.51570565  0.75774240  0.12466334     0.02100
C1863       C  0.51293204  0.81372085  0.15866491     0.08900
N1864       N  0.53061069  0.83874321  0.11072205     0.65300
H1865       H  0.52556635  0.80177034  0.07877659     0.18200
N1866       N  0.51093967  0.73066846  0.13013287     0.75700
H1867       H  0.51309713  0.76649511  0.16127343     0.09700
C1868       C  0.48696038  0.81212641  0.15913646     0.03400
C1869       C  0.47756611  0.81794504  0.18007902    -0.05300
C1870       C  0.49336333  0.82522762  0.20106086    -0.23700
C1871       C  0.52006408  0.82816041  0.20022328     0.12600
C1872       C  0.52950342  0.82230388  0.17914000    -0.12900
N1873       N  0.46854160  0.80188441  0.13924289     0.64300
H1874       H  0.45681238  0.81489834  0.18014623     0.12100
N1875       N  0.53727661  0.83559021  0.22080694     0.60900
H1876       H  0.54927650  0.82307298  0.17908602     0.08300
O1877       O  0.53147615  0.72716432  0.13114053    -0.40500
O1878       O  0.48827708  0.71305334  0.13991540    -0.39700
O1879       O  0.55515492  0.85909205  0.11339841    -0.39700
O1880       O  0.51356014  0.84199072  0.09857622    -0.37400
O1881       O  0.53665740  0.81665677  0.23345283    -0.38300
O1882       O  0.55673812  0.86055183  0.22357685    -0.34500
O1883       O  0.45238626  0.77590477  0.13681096    -0.35900
O1884       O  0.46344068  0.81832189  0.12810314    -0.40200
C1885       C  0.43989891  0.70927615  0.27416745    -0.13900
C1886       C  0.42745270  0.69951520  0.29642804     0.16500
C1887       C  0.42684242  0.71821056  0.31278778     0.02800
C1888       C  0.43751226  0.74610406  0.30618232    -0.12400
C1889       C  0.44807429  0.75529412  0.28325421    -0.03400
C1890       C  0.45001929  0.73690231  0.26741834     0.02100
C1891       C  0.41196643  0.66909996  0.30028432     0.08900
N1892       N  0.41432516  0.70889042  0.33562847     0.65300
H1893       H  0.43590592  0.76013096  0.31842781     0.18200
N1894       N  0.46174664  0.74588355  0.24427452     0.75700
H1895       H  0.44044903  0.69496305  0.26150946     0.09700
C1896       C  0.38381376  0.65328036  0.29340688     0.03400
C1897       C  0.37151591  0.62469128  0.28968441    -0.05300
C1898       C  0.38659705  0.61127100  0.29317188    -0.23700
C1899       C  0.41383372  0.62652520  0.30255585     0.12600
C1900       C  0.42653357  0.65550142  0.30561431    -0.12900
N1901       N  0.36838341  0.66641655  0.28763949     0.64300
H1902       H  0.35054331  0.61321777  0.28255186     0.12100
N1903       N  0.42960339  0.61344839  0.30710269     0.60900
H1904       H  0.44827126  0.66761887  0.31079949     0.08300
O1905       O  0.44583869  0.73894726  0.22652261    -0.40500
O1906       O  0.48748935  0.75552271  0.24116934    -0.39700
O1907       O  0.42966248  0.71306362  0.35339854    -0.39700
O1908       O  0.38924850  0.70211323  0.33876251    -0.37400
O1909       O  0.44834313  0.61670464  0.29269982    -0.38300
O1910       O  0.42893966  0.60390870  0.32751935    -0.34500
O1911       O  0.36771743  0.67320709  0.26642072    -0.35900
O1912       O  0.35074376  0.66533652  0.30226941    -0.40200
C1913       C  0.25114885  0.91144873  0.07573618    -0.13900
C1914       C  0.22594743  0.90575418  0.06533460     0.16500
C1915       C  0.21372054  0.88485104  0.04782673     0.02800
C1916       C  0.22549975  0.86866590  0.04238926    -0.12400
C1917       C  0.25004996  0.87341465  0.05347089    -0.03400
C1918       C  0.26346633  0.89573033  0.06972850     0.02100
C1919       C  0.21108939  0.91958516  0.07450250     0.08900
N1920       N  0.18964692  0.88021183  0.03503132     0.65300
H1921       H  0.21536257  0.85224389  0.02928993     0.18200
N1922       N  0.28865531  0.90168702  0.08128736     0.75700
H1923       H  0.26080266  0.92753993  0.08915121     0.09700
C1924       C  0.18684071  0.90445145  0.08839972     0.03400
C1925       C  0.17182187  0.91686565  0.09560785    -0.05300
C1926       C  0.18055973  0.94465731  0.08972325    -0.23700
C1927       C  0.20573780  0.96037303  0.07679980     0.12600
C1928       C  0.22065653  0.94767510  0.06918971    -0.12900
N1929       N  0.17759590  0.87659748  0.09598007     0.64300
H1930       H  0.15308979  0.90449614  0.10608563     0.12100
N1931       N  0.21605103  0.98885346  0.07067581     0.60900
H1932       H  0.23949416  0.95963001  0.05875100     0.08300
O1933       O  0.28748831  0.89183929  0.10167674    -0.40500
O1934       O  0.31176292  0.92102952  0.07343549    -0.39700
O1935       O  0.19291923  0.89462303  0.01675201    -0.39700
O1936       O  0.16658228  0.85795098  0.03834475    -0.37400
O1937       O  0.23540056  0.00798193  0.08279765    -0.38300
O1938       O  0.20997040  0.99467425  0.05081013    -0.34500
O1939       O  0.18846823  0.87289870  0.11413063    -0.35900
O1940       O  0.15477300  0.85667462  0.08834248    -0.40200
C1941       C  0.18602212  0.67232993  0.01072383    -0.13900
C1942       C  0.19922419  0.65769468  0.01759676     0.16500
C1943       C  0.22734940  0.67305986  0.02494370     0.02800
C1944       C  0.24070535  0.70191752  0.02737159    -0.12400
C1945       C  0.22721040  0.71647940  0.02189338    -0.03400
C1946       C  0.20006824  0.70167778  0.01235011     0.02100
C1947       C  0.18370774  0.62658530  0.01813019     0.08900
N1948       N  0.24226301  0.65958909  0.03143300     0.65300
H1949       H  0.26149153  0.71292571  0.03479411     0.18200
N1950       N  0.18622665  0.71598020  0.00516720     0.75700
H1951       H  0.16470640  0.66092650  0.00437957     0.09700
C1952       C  0.16059835  0.61111779  0.03337704     0.03400
C1953       C  0.15015953  0.58254159  0.03719546    -0.05300
C1954       C  0.16282488  0.56922734  0.02643083    -0.23700
C1955       C  0.18463486  0.58423070  0.00998317     0.12600
C1956       C  0.19449684  0.61247971  0.00566483    -0.12900
N1957       N  0.14939360  0.62467094  0.04696116     0.64300
H1958       H  0.13377014  0.57140001  0.05021320     0.12100
N1959       N  0.19808546  0.57144259  0.99856073     0.60900
H1960       H  0.21188708  0.62389860  0.99358420     0.08300
O1961       O  0.17212485  0.72057459  0.01997031    -0.40500
O1962       O  0.19103757  0.72712966  0.98490902    -0.39700
O1963       O  0.26016545  0.66036436  0.01726939    -0.39700
O1964       O  0.24265759  0.65336050  0.05287412    -0.37400
O1965       O  0.19079933  0.56183704  0.97787474    -0.38300
O1966       O  0.22063698  0.57502751  0.00689148    -0.34500
O1967       O  0.12713528  0.62319034  0.04031558    -0.35900
O1968       O  0.15838262  0.63305101  0.06764443    -0.40200
C1969       C  0.16038438  0.68629378  0.16096661    -0.13900
C1970       C  0.16421731  0.71305604  0.16273899     0.16500
C1971       C  0.15636925  0.72077589  0.18379648     0.02800
C1972       C  0.14696246  0.70258492  0.20324549    -0.12400
C1973       C  0.14500872  0.67648260  0.20216193    -0.03400
C1974       C  0.15072869  0.66793845  0.18030336     0.02100
C1975       C  0.17885470  0.73309211  0.14313845     0.08900
N1976       N  0.15777274  0.74695282  0.18571789     0.65300
H1977       H  0.14203086  0.70943265  0.21953543     0.18200
N1978       N  0.14767902  0.64110147  0.17751712     0.75700
H1979       H  0.16600647  0.67999945  0.14471130     0.09700
C1980       C  0.20627657  0.75587738  0.14608374     0.03400
C1981       C  0.22144312  0.77150863  0.12631591    -0.05300
C1982       C  0.21052677  0.76398739  0.10328632    -0.23700
C1983       C  0.18252216  0.74219571  0.10053608     0.12600
C1984       C  0.16694064  0.72709732  0.12044972    -0.12900
N1985       N  0.22028406  0.76122183  0.16839202     0.64300
H1986       H  0.24283954  0.78824727  0.12880463     0.12100
N1987       N  0.17060273  0.73294591  0.07758774     0.60900
H1988       H  0.14599371  0.70942594  0.11799166     0.08300
O1989       O  0.12508204  0.62117061  0.16954018    -0.40500
O1990       O  0.16893375  0.63875929  0.17847941    -0.39700
O1991       O  0.13757807  0.74892377  0.17829894    -0.39700
O1992       O  0.17509207  0.76522093  0.19976041    -0.37400
O1993       O  0.16845485  0.71099757  0.06920514    -0.38300
O1994       O  0.15647891  0.74241843  0.06862474    -0.34500
O1995       O  0.22794616  0.74485861  0.17567238    -0.35900
O1996       O  0.23040145  0.78494522  0.17786132    -0.40200
C1997       C  0.40701258  0.87624844  0.17409771    -0.13900
C1998       C  0.37972766  0.87063315  0.17759362     0.16500
C1999       C  0.36832832  0.86466461  0.20070261     0.02800
C2000       C  0.38324897  0.86194528  0.21935686    -0.12400
C2001       C  0.40943997  0.86510475  0.21533181    -0.03400
C2002       C  0.42187304  0.87340155  0.19277133     0.02100
C2003       C  0.36133678  0.86312986  0.15662233     0.08900
N2004       N  0.34074161  0.85914398  0.20506380     0.65300
H2005       H  0.37352272  0.85544906  0.23668108     0.18200
N2006       N  0.44846514  0.87656383  0.18807401     0.75700
H2007       H  0.41580065  0.88028629  0.15637321     0.09700
C2008       C  0.36517241  0.88231566  0.13862907     0.03400
C2009       C  0.34960982  0.87276297  0.11756989    -0.05300
C2010       C  0.33102285  0.84410513  0.11377957    -0.23700
C2011       C  0.32719557  0.82504985  0.13207259     0.12600
C2012       C  0.34197742  0.83477091  0.15321145    -0.12900
N2013       N  0.38525134  0.91134434  0.14121160     0.64300
H2014       H  0.35301449  0.88767037  0.10374540     0.12100
N2015       N  0.30922999  0.79556109  0.12927364     0.60900
H2016       H  0.33944566  0.81972991  0.16662674     0.08300
O2017       O  0.44964576  0.85710890  0.17790309    -0.40500
O2018       O  0.47014814  0.90047849  0.18927594    -0.39700
O2019       O  0.32091292  0.83427315  0.20754669    -0.39700
O2020       O  0.33738651  0.87886977  0.21139462    -0.37400
O2021       O  0.28597633  0.78327598  0.13980545    -0.38300
O2022       O  0.31928945  0.78137538  0.12155086    -0.34500
O2023       O  0.40884198  0.92143169  0.13142385    -0.35900
O2024       O  0.37746839  0.92755599  0.14863647    -0.40200
C2025       C  0.37217808  0.77520420  0.01656813    -0.13900
C2026       C  0.39921351  0.79653426  0.02238114     0.16500
C2027       C  0.40360915  0.82279773  0.02924994     0.02800
C2028       C  0.38068367  0.82636404  0.03215685    -0.12400
C2029       C  0.35330906  0.80423084  0.02813919    -0.03400
C2030       C  0.34936771  0.77881963  0.01914452     0.02100
C2031       C  0.42109409  0.78904809  0.02410733     0.08900
N2032       N  0.43108980  0.84599949  0.03330802     0.65300
H2033       H  0.38429742  0.84624373  0.03853601     0.18200
N2034       N  0.32229425  0.75604011  0.01322798     0.75700
H2035       H  0.36852153  0.75502544  0.01099159     0.09700
C2036       C  0.43202009  0.78805490  0.04636462     0.03400
C2037       C  0.44720349  0.77466426  0.04859339    -0.05300
C2038       C  0.45139470  0.76150048  0.02916641    -0.23700
C2039       C  0.44203014  0.76393096  0.00660366     0.12600
C2040       C  0.42695204  0.77761239  0.00427085    -0.12900
N2041       N  0.42543310  0.79782627  0.06738328     0.64300
H2042       H  0.45444666  0.77319879  0.06605791     0.12100
N2043       N  0.44552932  0.75068307  0.98634266     0.60900
H2044       H  0.41834618  0.77787622  0.98713735     0.08300
O2045       O  0.31221443  0.73374408  0.02506488    -0.40500
O2046       O  0.31223606  0.75558434  0.99310609    -0.39700
O2047       O  0.44659338  0.85841282  0.01572728    -0.39700
O2048       O  0.43696802  0.85810612  0.05316910    -0.37400
O2049       O  0.42640333  0.72640966  0.98073490    -0.38300
O2050       O  0.46459287  0.76510578  0.97156294    -0.34500
O2051       O  0.40204129  0.78268708  0.07725949    -0.35900
O2052       O  0.44486546  0.81763308  0.07890215    -0.40200
C2053       C  0.48343829  0.81937302  0.42641763    -0.13900
C2054       C  0.48033975  0.84184676  0.42008337     0.16500
C2055       C  0.48175029  0.86028507  0.43773891     0.02800
C2056       C  0.48694503  0.85643211  0.46127304    -0.12400
C2057       C  0.49024087  0.83398725  0.46783334    -0.03400
C2058       C  0.48810022  0.81510857  0.45002412     0.02100
C2059       C  0.47566486  0.84547840  0.39488187     0.08900
N2060       N  0.47663169  0.88220657  0.43226499     0.65300
H2061       H  0.48773215  0.87082953  0.47455108     0.18200
N2062       N  0.49015041  0.79127351  0.45550421     0.75700
H2063       H  0.48206830  0.80492226  0.41290842     0.09700
C2064       C  0.49763735  0.86518237  0.38048952     0.03400
C2065       C  0.49347150  0.86611415  0.35613610    -0.05300
C2066       C  0.46757825  0.84773597  0.34574588    -0.23700
C2067       C  0.44532743  0.82834859  0.36026599     0.12600
C2068       C  0.44959660  0.82733651  0.38465572    -0.12900
N2069       N  0.52471277  0.88341412  0.39013348     0.64300
H2070       H  0.51072480  0.88107525  0.34521416     0.12100
N2071       N  0.41900605  0.80821603  0.35031316     0.60900
H2072       H  0.43273014  0.81180915  0.39556680     0.08300
O2073       O  0.46823396  0.76818849  0.45973399    -0.40500
O2074       O  0.51270514  0.79194113  0.45152305    -0.39700
O2075       O  0.45213783  0.87767230  0.43415903    -0.39700
O2076       O  0.49684681  0.90705319  0.43136574    -0.37400
O2077       O  0.41456797  0.78436732  0.34490096    -0.38300
O2078       O  0.39866119  0.81198138  0.35186448    -0.34500
O2079       O  0.54233375  0.87572651  0.39040997    -0.35900
O2080       O  0.53289369  0.90886988  0.39307681    -0.40200
C2081       C  0.66059832  0.91253337  0.59299966    -0.13900
C2082       C  0.65794581  0.92784473  0.57457790     0.16500
C2083       C  0.68172640  0.95247482  0.56645419     0.02800
C2084       C  0.70784511  0.96080314  0.57630218    -0.12400
C2085       C  0.71064314  0.94476573  0.59400410    -0.03400
C2086       C  0.68667195  0.92077987  0.60274957     0.02100
C2087       C  0.63011388  0.91668491  0.56386846     0.08900
N2088       N  0.67972719  0.96922801  0.54834802     0.65300
H2089       H  0.72613756  0.97938578  0.56954875     0.18200
N2090       N  0.68841520  0.90499271  0.62188205     0.75700
H2091       H  0.64231605  0.89377795  0.59957897     0.09700
C2092       C  0.62334091  0.90208589  0.54223686     0.03400
C2093       C  0.59545369  0.88643962  0.53503708    -0.05300
C2094       C  0.57387275  0.88441492  0.54936778    -0.23700
C2095       C  0.58091945  0.90012216  0.57059176     0.12600
C2096       C  0.60891543  0.91626152  0.57747470    -0.12900
N2097       N  0.64411773  0.90054775  0.52864614     0.64300
H2098       H  0.59056383  0.87450263  0.51877052     0.12100
N2099       N  0.55993008  0.89769402  0.58661079     0.60900
H2100       H  0.61396031  0.92695794  0.59439964     0.08300
O2101       O  0.68614698  0.91120034  0.64294765    -0.40500
O2102       O  0.68717051  0.88221028  0.61768622    -0.39700
O2103       O  0.67668692  0.98927579  0.55425037    -0.39700
O2104       O  0.68803562  0.96863260  0.52765765    -0.37400
O2105       O  0.54946041  0.87800326  0.60150020    -0.38300
O2106       O  0.55647318  0.91811442  0.58932543    -0.34500
O2107       O  0.65021628  0.88236776  0.53383932    -0.35900
O2108       O  0.65150794  0.91267852  0.50880545    -0.40200
C2109       C  0.48916453  0.66108618  0.93063316    -0.13900
C2110       C  0.48565894  0.67862770  0.91519832     0.16500
C2111       C  0.48501084  0.70171856  0.92454589     0.02800
C2112       C  0.48855316  0.70718404  0.94903006    -0.12400
C2113       C  0.49172107  0.68934925  0.96455688    -0.03400
C2114       C  0.49188975  0.66600471  0.95506043     0.02100
C2115       C  0.48223006  0.67175189  0.88954415     0.08900
N2116       N  0.47871855  0.71850241  0.90974835     0.65300
H2117       H  0.48752482  0.72468366  0.95604921     0.18200
N2118       N  0.49507895  0.64713967  0.96993383     0.75700
H2119       H  0.48960921  0.64325254  0.92364066     0.09700
C2120       C  0.50357168  0.68772517  0.87307637     0.03400
C2121       C  0.50041848  0.67936499  0.84929002    -0.05300
C2122       C  0.47649144  0.65471044  0.84141956    -0.23700
C2123       C  0.45540019  0.63841758  0.85821111     0.12600
C2124       C  0.45838032  0.64715787  0.88191026    -0.12900
N2125       N  0.52931625  0.71147312  0.88050543     0.64300
H2126       H  0.51714029  0.69216928  0.83700329     0.12100
N2127       N  0.43118883  0.61255096  0.85177910     0.60900
H2128       H  0.44216778  0.63432639  0.89459899     0.08300
O2129       O  0.51908294  0.65084601  0.97317881    -0.40500
O2130       O  0.47385774  0.62407475  0.97556127    -0.39700
O2131       O  0.45351687  0.71085559  0.90601108    -0.39700
O2132       O  0.49744735  0.74339847  0.90537529    -0.37400
O2133       O  0.43120173  0.59013059  0.85431061    -0.38300
O2134       O  0.40847760  0.61158941  0.84796777    -0.34500
O2135       O  0.54843227  0.70798492  0.88834891    -0.35900
O2136       O  0.53515055  0.73558396  0.87431406    -0.40200
C2137       C  0.53401430  0.73819620  0.67478612    -0.13900
C2138       C  0.51785312  0.72805799  0.65418093     0.16500
C2139       C  0.49409460  0.70088850  0.65429682     0.02800
C2140       C  0.48577176  0.68544296  0.67528698    -0.12400
C2141       C  0.50032063  0.69664693  0.69657652    -0.03400
C2142       C  0.52545319  0.72289655  0.69594610     0.02100
C2143       C  0.52405018  0.74692233  0.63362172     0.08900
N2144       N  0.47675232  0.68955243  0.63383564     0.65300
H2145       H  0.46673362  0.66516448  0.67510456     0.18200
N2146       N  0.54179605  0.73508946  0.71676150     0.75700
H2147       H  0.55274202  0.75871441  0.67473165     0.09700
C2148       C  0.52455146  0.77230370  0.63626917     0.03400
C2149       C  0.52409262  0.78666384  0.61621213    -0.05300
C2150       C  0.52279077  0.77604549  0.59349898    -0.23700
C2151       C  0.52530422  0.75240971  0.59069333     0.12600
C2152       C  0.52613763  0.73812939  0.61079241    -0.12900
N2153       N  0.52198805  0.78196856  0.65905261     0.64300
H2154       H  0.52175224  0.80462661  0.61847986     0.12100
N2155       N  0.52416377  0.74106032  0.56775506     0.60900
H2156       H  0.52653416  0.71908815  0.60853567     0.08300
O2157       O  0.56219705  0.73197582  0.72092488    -0.40500
O2158       O  0.53963727  0.75347008  0.72790051    -0.39700
O2159       O  0.47689152  0.67022911  0.62238618    -0.39700
O2160       O  0.45733334  0.69439155  0.63042652    -0.37400
O2161       O  0.54660515  0.74888372  0.55659981    -0.38300
O2162       O  0.50232297  0.71888719  0.56157505    -0.34500
O2163       O  0.54297277  0.80278766  0.66819098    -0.35900
O2164       O  0.49802361  0.77376109  0.66743237    -0.40200
C2165       C  0.11041260  0.65356816  0.43674220    -0.13900
C2166       C  0.13303967  0.66661399  0.42093495     0.16500
C2167       C  0.15863016  0.68903697  0.42929163     0.02800
C2168       C  0.16133928  0.69719907  0.45318080    -0.12400
C2169       C  0.13879828  0.68395656  0.46917599    -0.03400
C2170       C  0.11294420  0.66203514  0.46051399     0.02100
C2171       C  0.12889284  0.65701838  0.39572728     0.08900
N2172       N  0.18164691  0.70474008  0.41355503     0.65300
H2173       H  0.18130988  0.71425530  0.45916284     0.18200
N2174       N  0.08878430  0.64847242  0.47536929     0.75700
H2175       H  0.09048443  0.63662491  0.43053805     0.09700
C2176       C  0.14439428  0.64628837  0.38511260     0.03400
C2177       C  0.13931000  0.63717107  0.36144919    -0.05300
C2178       C  0.11884641  0.63825914  0.34797295    -0.23700
C2179       C  0.10294293  0.64839659  0.35869076     0.12600
C2180       C  0.10809874  0.65767063  0.38229146    -0.12900
N2181       N  0.16453024  0.64335042  0.39830668     0.64300
H2182       H  0.15163433  0.62936699  0.35348535     0.12100
N2183       N  0.08055108  0.64810391  0.34624832     0.60900
H2184       H  0.09564242  0.66532430  0.39024667     0.08300
O2185       O  0.08185684  0.62524436  0.48466851    -0.40500
O2186       O  0.07160596  0.65673053  0.47523515    -0.39700
O2187       O  0.18078947  0.72157831  0.39917697    -0.39700
O2188       O  0.20478177  0.70678117  0.41781924    -0.37400
O2189       O  0.08368621  0.67062111  0.33823586    -0.38300
O2190       O  0.05633147  0.62685639  0.34765780    -0.34500
O2191       O  0.15619703  0.62345092  0.41285644    -0.35900
O2192       O  0.18952083  0.65563068  0.39119439    -0.40200
C2193       C  0.29719138  0.74283513  0.51274461    -0.13900
C2194       C  0.31359503  0.77098762  0.51927596     0.16500
C2195       C  0.30072529  0.78647305  0.52383472     0.02800
C2196       C  0.27161428  0.77314247  0.52363983    -0.12400
C2197       C  0.25499957  0.74433178  0.51931413    -0.03400
C2198       C  0.26801926  0.72940891  0.51266254     0.02100
C2199       C  0.34321634  0.78230141  0.52521775     0.08900
N2200       N  0.31679791  0.81497722  0.53108794     0.65300
H2201       H  0.26202565  0.78493717  0.52894894     0.18200
N2202       N  0.25195559  0.70058414  0.50627920     0.75700
H2203       H  0.30705297  0.73087881  0.50897441     0.09700
C2204       C  0.35010149  0.77397151  0.54635915     0.03400
C2205       C  0.37792362  0.78309794  0.55140536    -0.05300
C2206       C  0.39953205  0.80081100  0.53573285    -0.23700
C2207       C  0.39253623  0.80957112  0.51463503     0.12600
C2208       C  0.36446755  0.80032271  0.50962015    -0.12900
N2209       N  0.32885293  0.75602905  0.56282767     0.64300
H2210       H  0.38252313  0.77613691  0.56777724     0.12100
N2211       N  0.41338715  0.82680001  0.49765976     0.60900
H2212       H  0.35918161  0.80665715  0.49324720     0.08300
O2213       O  0.24906931  0.68220757  0.52092679    -0.40500
O2214       O  0.24604698  0.69407580  0.48475785    -0.39700
O2215       O  0.32428968  0.83410492  0.51587824    -0.39700
O2216       O  0.31911402  0.82093275  0.55286854    -0.37400
O2217       O  0.41960171  0.81561627  0.48123061    -0.38300
O2218       O  0.42175207  0.85248177  0.49655630    -0.34500
O2219       O  0.32080935  0.73040681  0.56360253    -0.35900
O2220       O  0.31663356  0.76531169  0.57528719    -0.40200
C2221       C  0.06840249  0.73147371  0.57935662    -0.13900
C2222       C  0.06758511  0.75050436  0.56355992     0.16500
C2223       C  0.08165324  0.75547150  0.54156782     0.02800
C2224       C  0.09708542  0.74275032  0.53646828    -0.12400
C2225       C  0.09839161  0.72419441  0.55245737    -0.03400
C2226       C  0.08306810  0.71796035  0.57382740     0.02100
C2227       C  0.05446848  0.76691649  0.57112917     0.08900
N2228       N  0.08030540  0.77316961  0.52399416     0.65300
H2229       H  0.10812965  0.74744817  0.51969524     0.18200
N2230       N  0.08253910  0.69844731  0.59042331     0.75700
H2231       H  0.05845474  0.72772801  0.59654968     0.09700
C2232       C  0.02764244  0.75439293  0.58167423     0.03400
C2233       C  0.01692452  0.77099983  0.58931056    -0.05300
C2234       C  0.03233417  0.80016978  0.58675336    -0.23700
C2235       C  0.05904458  0.81263632  0.57602188     0.12600
C2236       C  0.06989419  0.79611259  0.56881659    -0.12900
N2237       N  0.01076851  0.72482460  0.58455956     0.64300
H2238       H  0.99640601  0.76092880  0.59742845     0.12100
N2239       N  0.07517921  0.84198836  0.57150936     0.60900
H2240       H  0.09081426  0.80639172  0.56153760     0.08300
O2241       O  0.06069623  0.67472353  0.59213027    -0.40500
O2242       O  0.10018253  0.70704387  0.60697657    -0.39700
O2243       O  0.10208667  0.79600224  0.51883833    -0.39700
O2244       O  0.05986562  0.76309336  0.50994165    -0.37400
O2245       O  0.09505115  0.85756033  0.58516341    -0.38300
O2246       O  0.07325993  0.85125607  0.55164440    -0.34500
O2247       O  0.00695308  0.71444841  0.60508558    -0.35900
O2248       O  0.99470052  0.71028359  0.56799621    -0.40200
C2249       C  0.31941538  0.85931404  0.93637636    -0.13900
C2250       C  0.29882485  0.84109653  0.92051840     0.16500
C2251       C  0.27258275  0.82046026  0.92951228     0.02800
C2252       C  0.26747312  0.81856012  0.95404178    -0.12400
C2253       C  0.28843014  0.83621229  0.97010822    -0.03400
C2254       C  0.31469479  0.85694201  0.96087252     0.02100
C2255       C  0.30606720  0.84336444  0.89491440     0.08900
N2256       N  0.25177554  0.79978812  0.91429983     0.65300
H2257       H  0.24742373  0.80210920  0.96058964     0.18200
N2258       N  0.33720860  0.87536614  0.97600361     0.75700
H2259       H  0.33968703  0.87517824  0.92968162     0.09700
C2260       C  0.29234146  0.85022086  0.87767048     0.03400
C2261       C  0.30044596  0.85277990  0.85385778    -0.05300
C2262       C  0.32262483  0.84939808  0.84674686    -0.23700
C2263       C  0.33667103  0.84297182  0.86405546     0.12600
C2264       C  0.32822590  0.83990934  0.88785017    -0.12900
N2265       N  0.27126511  0.85624922  0.88412890     0.64300
H2266       H  0.28963640  0.85806049  0.84086253     0.12100
N2267       N  0.35876442  0.83840247  0.85770285     0.60900
H2268       H  0.33899153  0.83468921  0.90093799     0.08300
O2269       O  0.34257883  0.90003188  0.97889709    -0.40500
O2270       O  0.35517807  0.86920244  0.98180598    -0.39700
O2271       O  0.25426811  0.77967732  0.90747724    -0.39700
O2272       O  0.22834240  0.79787042  0.91263095    -0.37400
O2273       O  0.38377212  0.85768019  0.86064898    -0.38300
O2274       O  0.35336058  0.81392862  0.85356631    -0.34500
O2275       O  0.27855487  0.88013174  0.89212608    -0.35900
O2276       O  0.24686032  0.84111036  0.87616042    -0.40200
C2277       C  0.41042158  0.85967983  0.67253768    -0.13900
C2278       C  0.43705554  0.86405778  0.67710255     0.16500
C2279       C  0.44701486  0.86882626  0.70062549     0.02800
C2280       C  0.42926420  0.86633763  0.71930164    -0.12400
C2281       C  0.40186937  0.85980054  0.71480149    -0.03400
C2282       C  0.39301330  0.85811350  0.69111930     0.02100
C2283       C  0.45248428  0.86060792  0.65724990     0.08900
N2284       N  0.47504635  0.87631610  0.70579200     0.65300
H2285       H  0.43652526  0.86828100  0.73740141     0.18200
N2286       N  0.36625419  0.85445241  0.68581777     0.75700
H2287       H  0.40284581  0.85673449  0.65446718     0.09700
C2288       C  0.45545610  0.83707698  0.65613023     0.03400
C2289       C  0.46528980  0.83137442  0.63531898    -0.05300
C2290       C  0.47135627  0.84810809  0.61495490    -0.23700
C2291       C  0.47006452  0.87271880  0.61666897     0.12600
C2292       C  0.46065805  0.87866780  0.63770551    -0.12900
N2293       N  0.44552021  0.81697108  0.67488965     0.64300
H2294       H  0.46604833  0.81240339  0.63462974     0.12100
N2295       N  0.47691900  0.89126107  0.59699419     0.60900
H2296       H  0.45845419  0.89681672  0.63840059     0.08300
O2297       O  0.34897626  0.83410416  0.67334417    -0.40500
O2298       O  0.35953549  0.87113544  0.69419948    -0.39700
O2299       O  0.49426350  0.90153244  0.70384319    -0.39700
O2300       O  0.47945037  0.85983197  0.71765449    -0.37400
O2301       O  0.45768118  0.88905510  0.58379931    -0.38300
O2302       O  0.50069979  0.91316001  0.59604178    -0.34500
O2303       O  0.41969995  0.79950875  0.67656848    -0.35900
O2304       O  0.46249079  0.81249732  0.68585566    -0.40200
C2305       C  0.39054785  0.75382032  0.79510608    -0.13900
C2306       C  0.41953901  0.77080266  0.79755308     0.16500
C2307       C  0.43149552  0.79981024  0.80016825     0.02800
C2308       C  0.41454992  0.81152305  0.79892692    -0.12400
C2309       C  0.38589822  0.79478976  0.79412133    -0.03400
C2310       C  0.37370659  0.76549458  0.79291018     0.02100
C2311       C  0.43666147  0.75825428  0.79215724     0.08900
N2312       N  0.46101745  0.81780357  0.80210056     0.65300
H2313       H  0.42425084  0.83402506  0.79962311     0.18200
N2314       N  0.34457704  0.74734110  0.78829000     0.75700
H2315       H  0.38122451  0.73148854  0.79286552     0.09700
C2316       C  0.44208950  0.74323765  0.80919606     0.03400
C2317       C  0.45248926  0.72623763  0.80199360    -0.05300
C2318       C  0.45702852  0.72359094  0.77788096    -0.23700
C2319       C  0.45330516  0.74012347  0.76106577     0.12600
C2320       C  0.44333479  0.75733433  0.76834456    -0.12900
N2321       N  0.43574215  0.74389076  0.83363450     0.64300
H2322       H  0.45522338  0.71365980  0.81509757     0.12100
N2323       N  0.45878426  0.73906057  0.73642518     0.60900
H2324       H  0.43921372  0.76881914  0.75510476     0.08300
O2325       O  0.33602606  0.74349871  0.76715002    -0.40500
O2326       O  0.32945534  0.72982048  0.80389679    -0.39700
O2327       O  0.47521305  0.82975787  0.78379135    -0.39700
O2328       O  0.47185122  0.82604347  0.82229551    -0.37400
O2329       O  0.43882799  0.72399960  0.72265385    -0.38300
O2330       O  0.48192554  0.75741768  0.72780486    -0.34500
O2331       O  0.41370170  0.72382716  0.84236710    -0.35900
O2332       O  0.45448647  0.76136825  0.84726246    -0.40200
C2333       C  0.25240169  0.78745162  0.67089253    -0.13900
C2334       C  0.25624317  0.81059437  0.65806549     0.16500
C2335       C  0.27187643  0.83736285  0.66824637     0.02800
C2336       C  0.28374690  0.84049798  0.69089529    -0.12400
C2337       C  0.28049312  0.81725598  0.70350959    -0.03400
C2338       C  0.26423407  0.79044225  0.69328829     0.02100
C2339       C  0.24358556  0.80526657  0.63409154     0.08900
N2340       N  0.27582217  0.86143976  0.65590340     0.65300
H2341       H  0.29608242  0.86122895  0.69837635     0.18200
N2342       N  0.25874765  0.76578812  0.70563958     0.75700
H2343       H  0.24015825  0.76673580  0.66332095     0.09700
C2344       C  0.25884055  0.80545500  0.61408477     0.03400
C2345       C  0.24468676  0.79082705  0.59360508    -0.05300
C2346       C  0.21540351  0.77583242  0.59267345    -0.23700
C2347       C  0.20025881  0.77766180  0.61186877     0.12600
C2348       C  0.21444903  0.79246997  0.63234130    -0.12900
N2349       N  0.28838792  0.81745918  0.61530197     0.64300
H2350       H  0.25654470  0.78923882  0.57908163     0.12100
N2351       N  0.17049639  0.76107126  0.61235918     0.60900
H2352       H  0.20245308  0.79152861  0.64781524     0.08300
O2353       O  0.23551556  0.75112182  0.71587395    -0.40500
O2354       O  0.27356579  0.75527530  0.70130185    -0.39700
O2355       O  0.26041108  0.87112401  0.66082231    -0.39700
O2356       O  0.29802663  0.87623113  0.64429706    -0.37400
O2357       O  0.15630758  0.77257732  0.60970606    -0.38300
O2358       O  0.15879250  0.73629517  0.61990026    -0.34500
O2359       O  0.29814455  0.80222675  0.62063132    -0.35900
O2360       O  0.30429121  0.84121224  0.60632189    -0.40200
C2361       C  0.11350622  0.49783494  0.88589933    -0.13900
C2362       C  0.13207778  0.48940246  0.89324263     0.16500
C2363       C  0.14685307  0.48400021  0.87583759     0.02800
C2364       C  0.14313757  0.48745086  0.85182879    -0.12400
C2365       C  0.12437056  0.49560771  0.84434185    -0.03400
C2366       C  0.10941775  0.50081514  0.86176656     0.02100
C2367       C  0.13443110  0.48498147  0.91899541     0.08900
N2368       N  0.16442578  0.47335147  0.88200662     0.65300
H2369       H  0.15487523  0.48321447  0.83891998     0.18200
N2370       N  0.08935353  0.50821808  0.85536363     0.75700
H2371       H  0.10179366  0.50180935  0.89903770     0.09700
C2372       C  0.16021786  0.49872401  0.93116279     0.03400
C2373       C  0.16115732  0.49328918  0.95533625    -0.05300
C2374       C  0.13669103  0.47561025  0.96804732    -0.23700
C2375       C  0.11093070  0.46235226  0.95607675     0.12600
C2376       C  0.11005415  0.46675338  0.93170606    -0.12900
N2377       N  0.18512858  0.52001638  0.91990356     0.64300
H2378       H  0.18091407  0.50436293  0.96461979     0.12100
N2379       N  0.08553036  0.44407437  0.96834800     0.60900
H2380       H  0.09012610  0.45601263  0.92266205     0.08300
O2381       O  0.09556348  0.53328277  0.85705567    -0.40500
O2382       O  0.06419844  0.48926166  0.85248257    -0.39700
O2383       O  0.15334281  0.44787371  0.88731973    -0.39700
O2384       O  0.18985736  0.48691378  0.87612108    -0.37400
O2385       O  0.06930240  0.45260201  0.97387815    -0.38300
O2386       O  0.07669271  0.41826937  0.96898829    -0.34500
O2387       O  0.18698514  0.54279268  0.91437565    -0.35900
O2388       O  0.20703066  0.51878424  0.92071004    -0.40200
C2389       C  0.11383331  0.58136645  0.67458285    -0.13900
C2390       C  0.11722637  0.60721673  0.68058772     0.16500
C2391       C  0.11835004  0.61442223  0.70468213     0.02800
C2392       C  0.11813350  0.59652648  0.72226591    -0.12400
C2393       C  0.11672173  0.57147855  0.71607782    -0.03400
C2394       C  0.11338822  0.56343758  0.69203718     0.02100
C2395       C  0.12235578  0.62693091  0.66104639     0.08900
N2396       N  0.11991666  0.63980840  0.71149358     0.65300
H2397       H  0.12060455  0.60294983  0.74067302     0.18200
N2398       N  0.11002342  0.53732145  0.68500923     0.75700
H2399       H  0.11253261  0.57549706  0.65609208     0.09700
C2400       C  0.14956126  0.64915257  0.65623358     0.03400
C2401       C  0.15529794  0.66353421  0.63473568    -0.05300
C2402       C  0.13462793  0.65558865  0.61722876    -0.23700
C2403       C  0.10701095  0.63423538  0.62267105     0.12600
C2404       C  0.10114481  0.62028631  0.64451562    -0.12900
N2405       N  0.17227354  0.65524928  0.67167214     0.64300
H2406       H  0.17670640  0.67968357  0.63112275     0.12100
N2407       N  0.08480322  0.62572617  0.60609579     0.60900
H2408       H  0.08020711  0.60303272  0.64802332     0.08300
O2409       O  0.08652832  0.51532234  0.68751068    -0.40500
O2410       O  0.12799710  0.53706048  0.67162829    -0.39700
O2411       O  0.09763740  0.64002574  0.71434467    -0.39700
O2412       O  0.14244895  0.65964894  0.71964925    -0.37400
O2413       O  0.06662009  0.63219546  0.60996414    -0.38300
O2414       O  0.07931029  0.60613898  0.59186287    -0.34500
O2415       O  0.18397857  0.64112846  0.66994777    -0.35900
O2416       O  0.18461978  0.67827852  0.68248708    -0.40200
C2417       C  0.18186226  0.65294079  0.80873101    -0.13900
C2418       C  0.21033478  0.66858058  0.80305677     0.16500
C2419       C  0.22446395  0.65479184  0.79646330     0.02800
C2420       C  0.20943366  0.62598131  0.79314264    -0.12400
C2421       C  0.18051873  0.61052974  0.79681036    -0.03400
C2422       C  0.16692737  0.62387024  0.80610038     0.02100
C2423       C  0.22455605  0.69918113  0.80120803     0.08900
N2424       N  0.25365219  0.67004226  0.79118642     0.65300
H2425       H  0.22015170  0.61583192  0.78636264     0.18200
N2426       N  0.13770665  0.60857763  0.81118977     0.75700
H2427       H  0.17100876  0.66344873  0.81419420     0.09700
C2428       C  0.21851287  0.71166867  0.78223756     0.03400
C2429       C  0.23610362  0.74012179  0.77768660    -0.05300
C2430       C  0.25978462  0.75609170  0.79158620    -0.23700
C2431       C  0.26416019  0.74434519  0.81197118     0.12600
C2432       C  0.24663695  0.71585556  0.81658026    -0.12900
N2433       N  0.19646283  0.69521018  0.76598100     0.64300
H2434       H  0.23266965  0.74917013  0.76204192     0.12100
N2435       N  0.28648622  0.76114640  0.82788494     0.60900
H2436       H  0.25096808  0.70648902  0.83152502     0.08300
O2437       O  0.12067219  0.60744984  0.79594339    -0.40500
O2438       O  0.12958116  0.60108139  0.83223935    -0.39700
O2439       O  0.27074606  0.67133597  0.80645268    -0.39700
O2440       O  0.26172875  0.67747075  0.77011977    -0.37400
O2441       O  0.28269774  0.77422829  0.84427088    -0.38300
O2442       O  0.30799047  0.75923131  0.82811296    -0.34500
O2443       O  0.17433080  0.69601228  0.76676238    -0.35900
O2444       O  0.20122990  0.68457351  0.74819549    -0.40200
C2445       C  0.26151219  0.52778045  0.77913839    -0.13900
C2446       C  0.27648603  0.55135896  0.79376413     0.16500
C2447       C  0.26185635  0.56223477  0.80557479     0.02800
C2448       C  0.23364848  0.55151229  0.80070725    -0.12400
C2449       C  0.21932972  0.52959488  0.78457611    -0.03400
C2450       C  0.23296184  0.51666005  0.77467735     0.02100
C2451       C  0.30751405  0.56774499  0.79253853     0.08900
N2452       N  0.27577022  0.58528233  0.82151691     0.65300
H2453       H  0.22319376  0.56135751  0.80866774     0.18200
N2454       N  0.21894081  0.49433020  0.75809701     0.75700
H2455       H  0.27242605  0.51938480  0.76964303     0.09700
C2456       C  0.32412999  0.55620084  0.79777488     0.03400
C2457       C  0.35300055  0.57184862  0.79360844    -0.05300
C2458       C  0.36591086  0.59899973  0.78400796    -0.23700
C2459       C  0.34926935  0.61086077  0.77969269     0.12600
C2460       C  0.32048754  0.59513692  0.78375375    -0.12900
N2461       N  0.31205457  0.52855874  0.80705468     0.64300
H2462       H  0.36518937  0.56222870  0.79725746     0.12100
N2463       N  0.36087924  0.63840065  0.77027012     0.60900
H2464       H  0.30798112  0.60411794  0.77904967     0.08300
O2465       O  0.20475743  0.46951457  0.76548290    -0.40500
O2466       O  0.21788727  0.49960162  0.73649383    -0.39700
O2467       O  0.28047095  0.60899669  0.81522705    -0.39700
O2468       O  0.27712138  0.58058774  0.84320752    -0.37400
O2469       O  0.35989981  0.64169412  0.74822878    -0.38300
O2470       O  0.36672780  0.65841524  0.78411244    -0.34500
O2471       O  0.30849794  0.50905505  0.79347109    -0.35900
O2472       O  0.31160297  0.52512798  0.82920078    -0.40200
C2473       C  0.27466856  0.48492799  0.42378424    -0.13900
C2474       C  0.30096671  0.48942382  0.41738681     0.16500
C2475       C  0.31952449  0.49185486  0.43536834     0.02800
C2476       C  0.31133738  0.48896372  0.45912852    -0.12400
C2477       C  0.28473993  0.48368517  0.46566826    -0.03400
C2478       C  0.26640881  0.48203195  0.44762952     0.02100
C2479       C  0.30891098  0.49194048  0.39195783     0.08900
N2480       N  0.34653651  0.49648930  0.42977257     0.65300
H2481       H  0.32604981  0.49082341  0.47254581     0.18200
N2482       N  0.23932349  0.47725501  0.45307458     0.75700
H2483       H  0.26047899  0.48380590  0.41017228     0.09700
C2484       C  0.29260393  0.47052850  0.37566162     0.03400
C2485       C  0.30042924  0.47363047  0.35177379    -0.05300
C2486       C  0.32439885  0.49785652  0.34357364    -0.23700
C2487       C  0.34048757  0.51952427  0.35979208     0.12600
C2488       C  0.33271096  0.51634536  0.38376051    -0.12900
N2489       N  0.26823175  0.44529740  0.38315708     0.64300
H2490       H  0.28763464  0.45689650  0.33954395     0.12100
N2491       N  0.36348657  0.54562496  0.35195608     0.60900
H2492       H  0.34487768  0.53337773  0.39591866     0.08300
O2493       O  0.21835447  0.45288070  0.45161130    -0.40500
O2494       O  0.23579492  0.49775023  0.45457152    -0.39700
O2495       O  0.36789012  0.52010219  0.43364562    -0.39700
O2496       O  0.34934409  0.47588616  0.42564715    -0.37400
O2497       O  0.38809497  0.55134257  0.35585723    -0.38300
O2498       O  0.35926402  0.56470026  0.34531645    -0.34500
O2499       O  0.24441253  0.44132518  0.37835602    -0.35900
O2500       O  0.27044763  0.42506942  0.39008819    -0.40200
C2501       C  0.19037550  0.54558341  0.51106697    -0.13900
C2502       C  0.20485970  0.57358333  0.51820849     0.16500
C2503       C  0.23271629  0.58582106  0.52570578     0.02800
C2504       C  0.24497746  0.56953778  0.52759852    -0.12400
C2505       C  0.22995138  0.54084430  0.52222603    -0.03400
C2506       C  0.20277599  0.52923640  0.51260710     0.02100
C2507       C  0.18958434  0.58846350  0.52158022     0.08900
N2508       N  0.24815066  0.61428565  0.53321215     0.65300
H2509       H  0.26598481  0.57925848  0.53458943     0.18200
N2510       N  0.18723262  0.50090431  0.50476052     0.75700
H2511       H  0.16898714  0.53611205  0.50504843     0.09700
C2512       C  0.18996452  0.60714749  0.50459143     0.03400
C2513       C  0.17802847  0.62328489  0.51009289    -0.05300
C2514       C  0.16598123  0.62117938  0.53244960    -0.23700
C2515       C  0.16440469  0.60145693  0.54889125     0.12600
C2516       C  0.17604947  0.58521326  0.54332244    -0.12900
N2517       N  0.20346575  0.61085016  0.48220892     0.64300
H2518       H  0.17987770  0.63882329  0.49751579     0.12100
N2519       N  0.15179726  0.59838379  0.57163317     0.60900
H2520       H  0.17553123  0.57076241  0.55642921     0.08300
O2521       O  0.19057188  0.49522295  0.48381715    -0.40500
O2522       O  0.16594566  0.48337524  0.51623658    -0.39700
O2523       O  0.24875432  0.61995084  0.55494140    -0.39700
O2524       O  0.26572252  0.63262567  0.51928392    -0.37400
O2525       O  0.12620431  0.58063294  0.57439567    -0.38300
O2526       O  0.16698641  0.60950084  0.58958450    -0.34500
O2527       O  0.18897760  0.59903048  0.46406573    -0.35900
O2528       O  0.22868761  0.62986144  0.47975623    -0.40200
C2529       C  0.33846669  0.52147957  0.65213318    -0.13900
C2530       C  0.36648012  0.52932735  0.64889961     0.16500
C2531       C  0.37503890  0.52530776  0.62646114     0.02800
C2532       C  0.35624610  0.51581158  0.60737907    -0.12400
C2533       C  0.32855211  0.50958854  0.61017557    -0.03400
C2534       C  0.31948910  0.51143970  0.63319437     0.02100
C2535       C  0.38663272  0.54422340  0.66853102     0.08900
N2536       N  0.40255638  0.53026255  0.62286916     0.65300
H2537       H  0.36368590  0.51394227  0.59012195     0.18200
N2538       N  0.29110246  0.50312212  0.63778044     0.75700
H2539       H  0.33143757  0.52397970  0.66938272     0.09700
C2540       C  0.40711449  0.57282847  0.66643288     0.03400
C2541       C  0.42226122  0.58778438  0.68638485    -0.05300
C2542       C  0.41694493  0.57523942  0.70883674    -0.23700
C2543       C  0.39782860  0.54632534  0.71080329     0.12600
C2544       C  0.38290976  0.53103401  0.69065239    -0.12900
N2545       N  0.41022276  0.58795263  0.64506321     0.64300
H2546       H  0.43653807  0.61011067  0.68472542     0.12100
N2547       N  0.39124503  0.53283549  0.73339909     0.60900
H2548       H  0.36710523  0.50915793  0.69258909     0.08300
O2549       O  0.28455290  0.52147699  0.64016733    -0.40500
O2550       O  0.27432496  0.47850348  0.64464026    -0.39700
O2551       O  0.40796120  0.51195774  0.62937948    -0.39700
O2552       O  0.41886601  0.54903300  0.60858456    -0.37400
O2553       O  0.37172690  0.53165794  0.74562012    -0.38300
O2554       O  0.40099721  0.51765194  0.73890719    -0.34500
O2555       O  0.39277359  0.59522700  0.64050947    -0.35900
O2556       O  0.43349842  0.60006053  0.63453850    -0.40200
C2557       C  0.15022395  0.44782683  0.67599683    -0.13900
C2558       C  0.16069484  0.46635358  0.65674577     0.16500
C2559       C  0.16414182  0.49307081  0.65895339     0.02800
C2560       C  0.15938647  0.50161460  0.68075820    -0.12400
C2561       C  0.15018049  0.48367226  0.70039543    -0.03400
C2562       C  0.14471431  0.45618308  0.69774686     0.02100
C2563       C  0.17128610  0.45925862  0.63550604     0.08900
N2564       N  0.17393055  0.51234632  0.63957488     0.65300
H2565       H  0.16369107  0.52276545  0.68250715     0.18200
N2566       N  0.13596993  0.43737036  0.71739115     0.75700
H2567       H  0.14747455  0.42723333  0.67441528     0.09700
C2568       C  0.19440518  0.45562603  0.63715539     0.03400
C2569       C  0.20835231  0.45571988  0.61652913    -0.05300
C2570       C  0.19987031  0.45984226  0.59435576    -0.23700
C2571       C  0.17527976  0.46077326  0.59254303     0.12600
C2572       C  0.16096114  0.46015176  0.61311402    -0.12900
N2573       N  0.20594535  0.45520742  0.65964476     0.64300
H2574       H  0.22752110  0.45542319  0.61800731     0.12100
N2575       N  0.16651539  0.46571132  0.57028618     0.60900
H2576       H  0.14298036  0.46255531  0.61168390     0.08300
O2577       O  0.11118120  0.41703986  0.71824615    -0.40500
O2578       O  0.15412388  0.43741977  0.73067355    -0.39700
O2579       O  0.15670047  0.51557942  0.62767740    -0.39700
O2580       O  0.19969566  0.52977388  0.63742692    -0.37400
O2581       O  0.17046484  0.48961870  0.56588857    -0.38300
O2582       O  0.14950744  0.44518484  0.55784340    -0.34500
O2583       O  0.20505851  0.43327970  0.66649921    -0.35900
O2584       O  0.22075843  0.47772617  0.67077906    -0.40200
C2585       C  0.39619534  0.67770953  0.52020293    -0.13900
C2586       C  0.40984024  0.66262746  0.52070272     0.16500
C2587       C  0.43913895  0.67689662  0.52044480     0.02800
C2588       C  0.45443063  0.70614461  0.52139984    -0.12400
C2589       C  0.44072342  0.72128020  0.52322326    -0.03400
C2590       C  0.41132025  0.70681977  0.52138013     0.02100
C2591       C  0.39299286  0.63236732  0.52507987     0.08900
N2592       N  0.45343888  0.66184258  0.52097785     0.65300
H2593       H  0.47696872  0.71687497  0.52232665     0.18200
N2594       N  0.39645617  0.72133421  0.52128842     0.75700
H2595       H  0.37357939  0.66672436  0.52012001     0.09700
C2596       C  0.38348821  0.62263976  0.54817593     0.03400
C2597       C  0.36395224  0.59456921  0.55190497    -0.05300
C2598       C  0.35323052  0.57571242  0.53289639    -0.23700
C2599       C  0.36426400  0.58502257  0.50991718     0.12600
C2600       C  0.38402275  0.61340706  0.50616300    -0.12900
N2601       N  0.39227295  0.64139812  0.56785534     0.64300
H2602       H  0.35625879  0.58772725  0.56978185     0.12100
N2603       N  0.35433837  0.56651455  0.49007971     0.60900
H2604       H  0.39141874  0.62086936  0.48835109     0.08300
O2605       O  0.39161948  0.72912731  0.50181245    -0.40500
O2606       O  0.38374782  0.72154431  0.53973884    -0.39700
O2607       O  0.45776673  0.65286945  0.50189880    -0.39700
O2608       O  0.45785449  0.65389890  0.54056586    -0.37400
O2609       O  0.33505824  0.56503626  0.47739288    -0.38300
O2610       O  0.36839698  0.55623098  0.48256121    -0.34500
O2611       O  0.37758220  0.65141713  0.57428610    -0.35900
O2612       O  0.41098721  0.64322649  0.58151772    -0.40200
C2613       C  0.21791086  0.30195024  0.56812579    -0.13900
C2614       C  0.21806121  0.32260427  0.58235117     0.16500
C2615       C  0.20434610  0.31504586  0.60452042     0.02800
C2616       C  0.19012156  0.28705417  0.61162753    -0.12400
C2617       C  0.18833379  0.26612344  0.59666940    -0.03400
C2618       C  0.20288362  0.27384465  0.57489404     0.02100
C2619       C  0.22954761  0.35094230  0.57227193     0.08900
N2620       N  0.20203792  0.33484689  0.61886784     0.65300
H2621       H  0.17885686  0.28145170  0.62832396     0.18200
N2622       N  0.19923749  0.25325489  0.55797764     0.75700
H2623       H  0.22791306  0.30746549  0.55086108     0.09700
C2624       C  0.25211139  0.37478269  0.58267029     0.03400
C2625       C  0.26184629  0.40102768  0.57244884    -0.05300
C2626       C  0.24954747  0.40419281  0.55187063    -0.23700
C2627       C  0.22709106  0.38018841  0.54135561     0.12600
C2628       C  0.21739463  0.35393314  0.55158892    -0.12900
N2629       N  0.26584505  0.37271873  0.60323123     0.64300
H2630       H  0.27902939  0.41911660  0.58092311     0.12100
N2631       N  0.21412198  0.38193670  0.52015443     0.60900
H2632       H  0.20005124  0.33569863  0.54340881     0.08300
O2633       O  0.21933304  0.24988806  0.55303937    -0.40500
O2634       O  0.17808040  0.24272023  0.54473455    -0.39700
O2635       O  0.18468308  0.34185835  0.61314132    -0.39700
O2636       O  0.21148877  0.33941380  0.63973409    -0.37400
O2637       O  0.19142107  0.38161089  0.52149463    -0.38300
O2638       O  0.22209239  0.37799770  0.50035799    -0.34500
O2639       O  0.28370888  0.36551274  0.60083828    -0.35900
O2640       O  0.26542907  0.38453536  0.62216594    -0.40200
C2641       C  0.91955409  0.69719664  0.90437156    -0.13900
C2642       C  0.89223509  0.67642223  0.89847711     0.16500
C2643       C  0.87595347  0.68351494  0.88454518     0.02800
C2644       C  0.88687935  0.71112100  0.87714409    -0.12400
C2645       C  0.91397612  0.73236093  0.88352486    -0.03400
C2646       C  0.93058644  0.72497367  0.89700810     0.02100
C2647       C  0.88009836  0.64807656  0.90874710     0.08900
N2648       N  0.84770539  0.66320890  0.87881264     0.65300
H2649       H  0.87353766  0.71600088  0.86693239     0.18200
N2650       N  0.95850113  0.74530049  0.90363719     0.75700
H2651       H  0.93219412  0.69190704  0.91516887     0.09700
C2652       C  0.87763196  0.62553412  0.89553000     0.03400
C2653       C  0.86466423  0.59877417  0.90561473    -0.05300
C2654       C  0.85364758  0.59388646  0.92871675    -0.23700
C2655       C  0.85691622  0.61673559  0.94216430     0.12600
C2656       C  0.87011896  0.64351121  0.93211636    -0.12900
N2657       N  0.88778132  0.62937788  0.87173477     0.64300
H2658       H  0.86213108  0.58151221  0.89491314     0.12100
N2659       N  0.84731612  0.61321699  0.96613616     0.60900
H2660       H  0.87220669  0.66080584  0.94249968     0.08300
O2661       O  0.96309898  0.75668683  0.92376641    -0.40500
O2662       O  0.97865851  0.74775232  0.89152890    -0.39700
O2663       O  0.82830673  0.66074945  0.89201487    -0.39700
O2664       O  0.84195500  0.65303471  0.85819907    -0.37400
O2665       O  0.82551741  0.61374571  0.97085084    -0.38300
O2666       O  0.86360093  0.61583084  0.98272769    -0.34500
O2667       O  0.91160425  0.63283462  0.86789435    -0.35900
O2668       O  0.87085950  0.62273176  0.85475515    -0.40200
C2669       C  0.86075405  0.47836141  0.84972076    -0.13900
C2670       C  0.84404148  0.47033104  0.82941522     0.16500
C2671       C  0.82107816  0.47425905  0.82857305     0.02800
C2672       C  0.81451044  0.48486578  0.84834440    -0.12400
C2673       C  0.82967571  0.49060086  0.86953149    -0.03400
C2674       C  0.85380895  0.48834413  0.86976116     0.02100
C2675       C  0.84791525  0.45383228  0.81097738     0.08900
N2676       N  0.80216826  0.46437497  0.80899202     0.65300
H2677       H  0.79593783  0.48633817  0.84764920     0.18200
N2678       N  0.87031557  0.49397358  0.89063777     0.75700
H2679       H  0.87834842  0.47526342  0.85051948     0.09700
C2680       C  0.85376416  0.46279023  0.78724139     0.03400
C2681       C  0.85061923  0.44385446  0.76956518    -0.05300
C2682       C  0.84213519  0.41608659  0.77522591    -0.23700
C2683       C  0.83982945  0.40829810  0.79933819     0.12600
C2684       C  0.84235344  0.42708272  0.81694623    -0.12900
N2685       N  0.86268883  0.49091637  0.78083173     0.64300
H2686       H  0.85345008  0.45062176  0.75123430     0.12100
N2687       N  0.83461513  0.38140013  0.80622917     0.60900
H2688       H  0.83867143  0.42030014  0.83529554     0.08300
O2689       O  0.89297777  0.51697496  0.89254083    -0.40500
O2690       O  0.86532355  0.47420153  0.90451299    -0.39700
O2691       O  0.78412159  0.43869270  0.80762253    -0.39700
O2692       O  0.79898471  0.48152034  0.79689343    -0.37400
O2693       O  0.85499289  0.37824410  0.81040539    -0.38300
O2694       O  0.81048797  0.36290050  0.81293866    -0.34500
O2695       O  0.88793281  0.50961072  0.78376069    -0.35900
O2696       O  0.84762893  0.49574957  0.76740943    -0.40200
C2697       C  0.94461487  0.38419502  0.73826842    -0.13900
C2698       C  0.96272998  0.41149763  0.73025866     0.16500
C2699       C  0.95281570  0.42381740  0.71433959     0.02800
C2700       C  0.92455922  0.40969303  0.70840580    -0.12400
C2701       C  0.90590099  0.38296229  0.71748247    -0.03400
C2702       C  0.91639567  0.36969290  0.73177848     0.02100
C2703       C  0.99126247  0.42746923  0.74002580     0.08900
N2704       N  0.97126075  0.45033743  0.70365076     0.65300
H2705       H  0.91712710  0.41984043  0.69668629     0.18200
N2706       N  0.89855384  0.34216589  0.74082066     0.75700
H2707       H  0.95222556  0.37444890  0.75025498     0.09700
C2708       C  0.99921770  0.45059381  0.75492251     0.03400
C2709       C  0.02639023  0.46564735  0.76359566    -0.05300
C2710       C  0.04605209  0.45800660  0.75806274    -0.23700
C2711       C  0.03785112  0.43430258  0.74376047     0.12600
C2712       C  0.01055244  0.41926067  0.73484209    -0.12900
N2713       N  0.97971130  0.45850110  0.76214405     0.64300
H2714       H  0.03212974  0.48352295  0.77486184     0.12100
N2715       N  0.05727091  0.42616573  0.73702490     0.60900
H2716       H  0.00451002  0.40139118  0.72349601     0.08300
O2717       O  0.88955275  0.33893096  0.76181969    -0.40500
O2718       O  0.89670696  0.32163240  0.72980890    -0.39700
O2719       O  0.98662806  0.45167705  0.68665319    -0.39700
O2720       O  0.96726184  0.47033337  0.70699687    -0.37400
O2721       O  0.06843082  0.43272321  0.71674998    -0.38300
O2722       O  0.05855315  0.40776515  0.74895297    -0.34500
O2723       O  0.96316233  0.44550326  0.77901194    -0.35900
O2724       O  0.98390068  0.48214574  0.75626223    -0.40200
C2725       C  0.76171536  0.32058624  0.96768545    -0.13900
C2726       C  0.74696480  0.33460021  0.96828632     0.16500
C2727       C  0.71757625  0.31889653  0.96774354     0.02800
C2728       C  0.70354308  0.28985669  0.96492312    -0.12400
C2729       C  0.71828948  0.27587807  0.96219535    -0.03400
C2730       C  0.74777550  0.29152024  0.96456797     0.02100
C2731       C  0.76198369  0.36479488  0.96255248     0.08900
N2732       N  0.70182362  0.33247964  0.96767273     0.65300
H2733       H  0.68100204  0.27845161  0.96337462     0.18200
N2734       N  0.76421116  0.27892102  0.96123289     0.75700
H2735       H  0.78433866  0.33253611  0.96748746     0.09700
C2736       C  0.77410817  0.38614921  0.97971347     0.03400
C2737       C  0.78594092  0.41423913  0.97273854    -0.05300
C2738       C  0.78583741  0.42124218  0.94880069    -0.23700
C2739       C  0.77542995  0.39972745  0.93159973     0.12600
C2740       C  0.76357224  0.37198117  0.93863219    -0.12900
N2741       N  0.77369749  0.37963571  0.00423889     0.64300
H2742       H  0.79378051  0.43037248  0.98618252     0.12100
N2743       N  0.77613089  0.40559460  0.90683023     0.60900
H2744       H  0.75493356  0.35573665  0.92525744     0.08300
O2745       O  0.77508262  0.27447458  0.97898492    -0.40500
O2746       O  0.77284433  0.27815727  0.94071268    -0.39700
O2747       O  0.69394711  0.33724297  0.94820960    -0.39700
O2748       O  0.69141063  0.33476050  0.98679429    -0.37400
O2749       O  0.79712071  0.41045167  0.89462966    -0.38300
O2750       O  0.75399251  0.40050238  0.89648564    -0.34500
O2751       O  0.79557835  0.38283147  0.01372568    -0.35900
O2752       O  0.75401249  0.37683408  0.01723861    -0.40200
C2753       C  0.76807169  0.22578640  0.85435103    -0.13900
C2754       C  0.77838633  0.25387455  0.84852558     0.16500
C2755       C  0.77320072  0.27048445  0.86401126     0.02800
C2756       C  0.75555719  0.25822897  0.88350556    -0.12400
C2757       C  0.74324746  0.22963487  0.88822620    -0.03400
C2758       C  0.75090178  0.21364679  0.87431612     0.02100
C2759       C  0.78680835  0.26324412  0.82379331     0.08900
N2760       N  0.78304783  0.29908847  0.85867710     0.65300
H2761       H  0.75018153  0.27086930  0.89426465     0.18200
N2762       N  0.73894296  0.18447858  0.87854561     0.75700
H2763       H  0.77159029  0.21274238  0.84236318     0.09700
C2764       C  0.81406910  0.28425701  0.81732408     0.03400
C2765       C  0.81887322  0.29704039  0.79494091    -0.05300
C2766       C  0.79673385  0.28902745  0.77904030    -0.23700
C2767       C  0.77008141  0.26634679  0.78488008     0.12600
C2768       C  0.76537532  0.25369786  0.80706810    -0.12900
N2769       N  0.83685035  0.29297334  0.83331846     0.64300
H2770       H  0.83953500  0.31421403  0.79052278     0.12100
N2771       N  0.74743361  0.25603723  0.76852471     0.60900
H2772       H  0.74438898  0.23733250  0.81177803     0.08300
O2773       O  0.71789545  0.16720640  0.86677307    -0.40500
O2774       O  0.75267591  0.17610127  0.88990898    -0.39700
O2775       O  0.76784973  0.30523974  0.84680256    -0.39700
O2776       O  0.80336187  0.31795349  0.87017926    -0.37400
O2777       O  0.73030898  0.26429986  0.77006905    -0.38300
O2778       O  0.74068560  0.23403503  0.75711939    -0.34500
O2779       O  0.85048319  0.28069030  0.83291369    -0.35900
O2780       O  0.84713326  0.31630133  0.84351835    -0.40200
C2781       C  0.74988218  0.08929897  0.88988682    -0.13900
C2782       C  0.72675670  0.07199408  0.90405067     0.16500
C2783       C  0.72049334  0.04473577  0.90915113     0.02800
C2784       C  0.73779217  0.03538705  0.90042869    -0.12400
C2785       C  0.76146010  0.05285488  0.88652440    -0.03400
C2786       C  0.76716565  0.08011671  0.88104335     0.02100
C2787       C  0.71043013  0.08366572  0.91397329     0.08900
N2788       N  0.69678395  0.02640637  0.92329129     0.65300
H2789       H  0.73282532  0.01445814  0.90487935     0.18200
N2790       N  0.79055196  0.09903688  0.86679745     0.75700
H2791       H  0.75477113  0.11033029  0.88590059     0.09700
C2792       C  0.71820716  0.09813831  0.93563210     0.03400
C2793       C  0.70592435  0.11328379  0.94284967    -0.05300
C2794       C  0.68608746  0.11474248  0.92863460    -0.23700
C2795       C  0.67737798  0.09915556  0.90733623     0.12600
C2796       C  0.68965560  0.08381980  0.90020511    -0.12900
N2797       N  0.74001797  0.09927811  0.94966759     0.64300
H2798       H  0.71289821  0.12496918  0.95926457     0.12100
N2799       N  0.65761350  0.10015810  0.89196568     0.60900
H2800       H  0.68388713  0.07303829  0.88332239     0.08300
O2801       O  0.81186673  0.11879837  0.87659728    -0.40500
O2802       O  0.78753025  0.09970265  0.84468621    -0.39700
O2803       O  0.67468862  0.00810680  0.91328140    -0.39700
O2804       O  0.69974981  0.02463008  0.94527189    -0.37400
O2805       O  0.66612529  0.11714554  0.87485766    -0.38300
O2806       O  0.63242612  0.08064130  0.89257417    -0.34500
O2807       O  0.76499680  0.11812399  0.94570526    -0.35900
O2808       O  0.73399995  0.08531758  0.96861359    -0.40200
C2809       C  0.63001634  0.20676438  0.67305939    -0.13900
C2810       C  0.64535611  0.23404782  0.68191425     0.16500
C2811       C  0.63130505  0.24714838  0.69049297     0.02800
C2812       C  0.60229580  0.23204767  0.69201784    -0.12400
C2813       C  0.58691396  0.20390493  0.68520861    -0.03400
C2814       C  0.60080034  0.19167926  0.67436311     0.02100
C2815       C  0.67582319  0.24787195  0.68448461     0.08900
N2816       N  0.64631999  0.27482358  0.69992584     0.65300
H2817       H  0.59185951  0.24179897  0.70018799     0.18200
N2818       N  0.58582498  0.16341703  0.66637884     0.75700
H2819       H  0.64080948  0.19677391  0.66613221     0.09700
C2820       C  0.68745992  0.23870006  0.70182017     0.03400
C2821       C  0.71584003  0.25501259  0.70705113    -0.05300
C2822       C  0.73254449  0.28061790  0.69575114    -0.23700
C2823       C  0.72144040  0.28881261  0.67723944     0.12600
C2824       C  0.69311996  0.27235754  0.67168683    -0.12900
N2825       N  0.67018886  0.21463669  0.71604733     0.64300
H2826       H  0.72429046  0.24887191  0.72151775     0.12100
N2827       N  0.73857853  0.31421653  0.66453102     0.60900
H2828       H  0.68430704  0.27935728  0.65816788     0.08300
O2829       O  0.58430516  0.14436906  0.67946078    -0.40500
O2830       O  0.57900209  0.15835265  0.64483709    -0.39700
O2831       O  0.64751580  0.29471377  0.68832630    -0.39700
O2832       O  0.65408994  0.27853182  0.72128956    -0.37400
O2833       O  0.75243354  0.31423419  0.64682651    -0.38300
O2834       O  0.73636699  0.33520782  0.66850739    -0.34500
O2835       O  0.67158277  0.19296928  0.71347671    -0.35900
O2836       O  0.65801607  0.21689606  0.73403137    -0.40200
C2837       C  0.54755469  0.13132924  0.80692314    -0.13900
C2838       C  0.57305357  0.13300454  0.80257064     0.16500
C2839       C  0.58149543  0.13329098  0.77888211     0.02800
C2840       C  0.56565964  0.13463264  0.76019978    -0.12400
C2841       C  0.54119989  0.13504786  0.76479920    -0.03400
C2842       C  0.53145214  0.13192599  0.78834319     0.02100
C2843       C  0.59123967  0.13749779  0.82327198     0.08900
N2844       N  0.60584678  0.13205406  0.77353762     0.65300
H2845       H  0.57315388  0.13658854  0.74214439     0.18200
N2846       N  0.50540618  0.12976038  0.79372300     0.75700
H2847       H  0.54053083  0.13058195  0.82499395     0.09700
C2848       C  0.61712336  0.16256148  0.82589760     0.03400
C2849       C  0.63094580  0.16891260  0.84767089    -0.05300
C2850       C  0.61889317  0.15160358  0.86759222    -0.23700
C2851       C  0.59346128  0.12595247  0.86469633     0.12600
C2852       C  0.58022566  0.11900654  0.84256167    -0.12900
N2853       N  0.62804815  0.18343485  0.80773583     0.64300
H2854       H  0.65033443  0.18873266  0.84934940     0.12100
N2855       N  0.57966754  0.10762604  0.88426074     0.60900
H2856       H  0.56016676  0.09987271  0.84085919     0.08300
O2857       O  0.50504780  0.14788447  0.80679019    -0.40500
O2858       O  0.48301829  0.10689064  0.79021677    -0.39700
O2859       O  0.60504168  0.10923495  0.77616609    -0.39700
O2860       O  0.62514878  0.15111507  0.76123439    -0.37400
O2861       O  0.56203186  0.11025006  0.89619187    -0.38300
O2862       O  0.58051538  0.08560736  0.88630898    -0.34500
O2863       O  0.61682661  0.19777199  0.80426266    -0.35900
O2864       O  0.65225787  0.19209366  0.79971124    -0.40200
C2865       C  0.42113879  0.01762160  0.71973671    -0.13900
C2866       C  0.39743358  0.01048990  0.73340046     0.16500
C2867       C  0.38978583  0.03063442  0.73715054     0.02800
C2868       C  0.40668822  0.05781353  0.72813611    -0.12400
C2869       C  0.43146172  0.06541802  0.71575078    -0.03400
C2870       C  0.43813392  0.04466515  0.71097232     0.02100
C2871       C  0.38337350  0.98286727  0.74533860     0.08900
N2872       N  0.36620298  0.02453196  0.75147250     0.65300
H2873       H  0.40129435  0.07343280  0.73211373     0.18200
N2874       N  0.46242085  0.05076939  0.69762397     0.75700
H2875       H  0.42706033  0.00222726  0.71654056     0.09700
C2876       C  0.35737242  0.96049854  0.73782072     0.03400
C2877       C  0.34755810  0.93356144  0.74681157    -0.05300
C2878       C  0.36348988  0.92834729  0.76297193    -0.23700
C2879       C  0.38884523  0.95108470  0.77133523     0.12600
C2880       C  0.39846394  0.97795775  0.76251981    -0.12900
N2881       N  0.34164058  0.96433486  0.71989372     0.64300
H2882       H  0.32805918  0.91639430  0.74013175     0.12100
N2883       N  0.40506990  0.94732570  0.78883698     0.60900
H2884       H  0.41842462  0.99504303  0.76852851     0.08300
O2885       O  0.46056981  0.04710170  0.67547202    -0.40500
O2886       O  0.48382693  0.05430151  0.70829672    -0.39700
O2887       O  0.36940546  0.02876515  0.77352543    -0.39700
O2888       O  0.34476534  0.02208818  0.74171689    -0.37400
O2889       O  0.42596137  0.94590803  0.78248328    -0.38300
O2890       O  0.40227811  0.95154517  0.81037443    -0.34500
O2891       O  0.34525960  0.96048614  0.69845906    -0.35900
O2892       O  0.31999065  0.96463513  0.72570474    -0.40200
C2893       C  0.52724655  0.34545340  0.68881294    -0.13900
C2894       C  0.53832763  0.32987024  0.69796864     0.16500
C2895       C  0.56554946  0.34389156  0.70724981     0.02800
C2896       C  0.58055115  0.37300238  0.70877424    -0.12400
C2897       C  0.56919830  0.38883350  0.70064679    -0.03400
C2898       C  0.54267655  0.37482634  0.68964049     0.02100
C2899       C  0.52236419  0.29898710  0.69686901     0.08900
N2900       N  0.57812418  0.32867398  0.71535188     0.65300
H2901       H  0.60103784  0.38329249  0.71688789     0.18200
N2902       N  0.53088647  0.38995669  0.67967988     0.75700
H2903       H  0.50664511  0.33479493  0.68093239     0.09700
C2904       C  0.50427304  0.28273225  0.71541199     0.03400
C2905       C  0.49430231  0.25400471  0.71643498    -0.05300
C2906       C  0.50271072  0.24138240  0.69952748    -0.23700
C2907       C  0.51970045  0.25741921  0.68040764     0.12600
C2908       C  0.52903685  0.28592296  0.67904404    -0.12900
N2909       N  0.49798067  0.29552701  0.73442333     0.64300
H2910       H  0.48182255  0.24201427  0.73152654     0.12100
N2911       N  0.52884762  0.24537358  0.66291467     0.60900
H2912       H  0.54317003  0.29831970  0.66488405     0.08300
O2913       O  0.51132640  0.39045290  0.69039982    -0.40500
O2914       O  0.53546441  0.39713625  0.65816164    -0.39700
O2915       O  0.59384626  0.32503160  0.70165132    -0.39700
O2916       O  0.57144040  0.31662385  0.73525489    -0.37400
O2917       O  0.51827285  0.24060719  0.64246345    -0.38300
O2918       O  0.55134904  0.24569233  0.66606906    -0.34500
O2919       O  0.47577009  0.29618510  0.73384255    -0.35900
O2920       O  0.51157910  0.30117851  0.75351281    -0.40200
C2921       C  0.70640796  0.51596486  0.85738198    -0.13900
C2922       C  0.72157591  0.54236717  0.84682089     0.16500
C2923       C  0.74680630  0.56294846  0.85731911     0.02800
C2924       C  0.75721414  0.55607996  0.87722552    -0.12400
C2925       C  0.74257537  0.52905296  0.88685528    -0.03400
C2926       C  0.71635657  0.50928394  0.87731147     0.02100
C2927       C  0.71028396  0.54621717  0.82434212     0.08900
N2928       N  0.76173764  0.59083410  0.84836779     0.65300
H2929       H  0.77714091  0.57157997  0.88465698     0.18200
N2930       N  0.69948174  0.48220606  0.88766005     0.75700
H2931       H  0.68677694  0.50005855  0.84975499     0.09700
C2932       C  0.72312306  0.54772131  0.80234469     0.03400
C2933       C  0.70735899  0.54095754  0.78142803    -0.05300
C2934       C  0.67866697  0.53100339  0.78228126    -0.23700
C2935       C  0.66656299  0.53184402  0.80388684     0.12600
C2936       C  0.68260764  0.54014856  0.82456506    -0.12900
N2937       N  0.75068937  0.55217425  0.80121062     0.64300
H2938       H  0.71692347  0.54098472  0.76473266     0.12100
N2939       N  0.63735723  0.52135174  0.80568688     0.60900
H2940       H  0.67247313  0.53876669  0.84135404     0.08300
O2941       O  0.68153122  0.47847984  0.90313121    -0.40500
O2942       O  0.69826813  0.46130477  0.87787765    -0.39700
O2943       O  0.75538375  0.60815003  0.85579172    -0.39700
O2944       O  0.78509859  0.59973542  0.83847149    -0.37400
O2945       O  0.62244762  0.49961269  0.81777003    -0.38300
O2946       O  0.62817962  0.53716669  0.80071213    -0.34500
O2947       O  0.75448424  0.53234121  0.80610656    -0.35900
O2948       O  0.76968599  0.57342215  0.79062857    -0.40200
C2949       C  0.73868778  0.47606322  0.71137165    -0.13900
C2950       C  0.72993088  0.45191297  0.69779721     0.16500
C2951       C  0.70369475  0.43937518  0.68663937     0.02800
C2952       C  0.68609088  0.45009157  0.69028415    -0.12400
C2953       C  0.69413412  0.47339636  0.70495498    -0.03400
C2954       C  0.72102546  0.48675413  0.71514561     0.02100
C2955       C  0.74459248  0.43612876  0.70042537     0.08900
N2956       N  0.69360187  0.41408134  0.67352924     0.65300
H2957       H  0.66532937  0.43916633  0.68269099     0.18200
N2958       N  0.72884720  0.50804337  0.73251187     0.75700
H2959       H  0.75830628  0.48518190  0.72084955     0.09700
C2960       C  0.76551063  0.43892908  0.68468932     0.03400
C2961       C  0.77769828  0.42249000  0.68781025    -0.05300
C2962       C  0.76958946  0.40329247  0.70665925    -0.23700
C2963       C  0.74847045  0.40066775  0.72238501     0.12600
C2964       C  0.73632359  0.41692499  0.71906076    -0.12900
N2965       N  0.77491027  0.45865017  0.66571680     0.64300
H2966       H  0.79399152  0.42522148  0.67569198     0.12100
N2967       N  0.73886904  0.38153922  0.74186694     0.60900
H2968       H  0.72010569  0.41445420  0.73117587     0.08300
O2969       O  0.74653309  0.53301459  0.72722370    -0.40500
O2970       O  0.72385816  0.50106396  0.75405372    -0.39700
O2971       O  0.67669821  0.39099308  0.68312032    -0.39700
O2972       O  0.70431452  0.41447899  0.65370674    -0.37400
O2973       O  0.74771244  0.39044000  0.76248575    -0.38300
O2974       O  0.71783571  0.35738656  0.73924495    -0.34500
O2975       O  0.79497556  0.48317331  0.66916533    -0.35900
O2976       O  0.76746709  0.45016743  0.64477425    -0.40200
C2977       C  0.59757645  0.59073287  0.73823050    -0.13900
C2978       C  0.56852417  0.57919192  0.73903021     0.16500
C2979       C  0.55099473  0.55097606  0.73290985     0.02800
C2980       C  0.56241983  0.53490071  0.72595344    -0.12400
C2981       C  0.59151028  0.54605463  0.72509866    -0.03400
C2982       C  0.60917838  0.57447080  0.73144531     0.02100
C2983       C  0.55622539  0.59636584  0.74599951     0.08900
N2984       N  0.52133592  0.53807511  0.73424293     0.65300
H2985       H  0.54811583  0.51323733  0.72143865     0.18200
N2986       N  0.63879953  0.58698319  0.73180792     0.75700
H2987       H  0.61130923  0.61240667  0.74305930     0.09700
C2988       C  0.55119175  0.59951314  0.76999639     0.03400
C2989       C  0.53523735  0.61153953  0.77590670    -0.05300
C2990       C  0.52491320  0.62146740  0.75823317    -0.23700
C2991       C  0.53132496  0.61988007  0.73429925     0.12600
C2992       C  0.54655446  0.60706316  0.72833937    -0.12900
N2993       N  0.56152851  0.58990588  0.78853727     0.64300
H2994       H  0.53062628  0.61285377  0.79437449     0.12100
N2995       N  0.52082808  0.62947280  0.71581504     0.60900
H2996       H  0.55007729  0.60462734  0.70982416     0.08300
O2997       O  0.65072917  0.58761981  0.75096968    -0.40500
O2998       O  0.65316444  0.60230614  0.71474791    -0.39700
O2999       O  0.50749093  0.53406168  0.71549638    -0.39700
O3000       O  0.50880701  0.52592679  0.75312718    -0.37400
O3001       O  0.53532823  0.65426565  0.70843203    -0.38300
O3002       O  0.49573835  0.61461528  0.70932876    -0.34500
O3003       O  0.58427616  0.60691321  0.79847170    -0.35900
O3004       O  0.54552617  0.56653878  0.79810427    -0.40200
C3005       C  0.43988860  0.18581418  0.86648795    -0.13900
C3006       C  0.43650688  0.19436109  0.84401208     0.16500
C3007       C  0.43134451  0.21643458  0.84221240     0.02800
C3008       C  0.43288509  0.23160406  0.86247858    -0.12400
C3009       C  0.43899975  0.22476495  0.88468312    -0.03400
C3010       C  0.44097947  0.20072282  0.88683548     0.02100
C3011       C  0.44316733  0.18354200  0.82262904     0.08900
N3012       N  0.42690083  0.22516858  0.81968083     0.65300
H3013       H  0.43100052  0.24986777  0.86064602     0.18200
N3014       N  0.44658552  0.19258833  0.90913320     0.75700
H3015       H  0.44360586  0.16866931  0.86805098     0.09700
C3016       C  0.47080563  0.19027329  0.81858167     0.03400
C3017       C  0.47802448  0.18374134  0.79693372    -0.05300
C3018       C  0.45815942  0.17008178  0.77897388    -0.23700
C3019       C  0.43005192  0.16165121  0.78356831     0.12600
C3020       C  0.42282147  0.16870466  0.80527221    -0.12900
N3021       N  0.49225858  0.20550308  0.83567613     0.64300
H3022       H  0.49974414  0.19044541  0.79386857     0.12100
N3023       N  0.40905157  0.14771915  0.76592824     0.60900
H3024       H  0.40148007  0.16337312  0.80830301     0.08300
O3025       O  0.42793584  0.17019673  0.91859817    -0.40500
O3026       O  0.47151044  0.20350272  0.91605452    -0.39700
O3027       O  0.40264841  0.21920011  0.81388988    -0.39700
O3028       O  0.44752090  0.24214409  0.80722296    -0.37400
O3029       O  0.40302475  0.16179561  0.75236861    -0.38300
O3030       O  0.39297151  0.12159587  0.76708378    -0.34500
O3031       O  0.50147721  0.19299060  0.84776309    -0.35900
O3032       O  0.50561694  0.23183383  0.83523758    -0.40200
C3033       C  0.50358236  0.36221098  0.83153286    -0.13900
C3034       C  0.50080493  0.38571854  0.83205374     0.16500
C3035       C  0.48746175  0.38980297  0.85149773     0.02800
C3036       C  0.47916401  0.37154305  0.87091435    -0.12400
C3037       C  0.48379078  0.34909853  0.87106469    -0.03400
C3038       C  0.49500966  0.34381409  0.85069623     0.02100
C3039       C  0.51457840  0.40656501  0.81299206     0.08900
N3040       N  0.48200805  0.41212016  0.85166725     0.65300
H3041       H  0.46998502  0.37551752  0.88624262     0.18200
N3042       N  0.49759051  0.31972820  0.84909505     0.75700
H3043       H  0.51333052  0.35859221  0.81640472     0.09700
C3044       C  0.53976432  0.43172277  0.81730312     0.03400
C3045       C  0.55695426  0.44745195  0.79827820    -0.05300
C3046       C  0.54954077  0.43764187  0.77488794    -0.23700
C3047       C  0.52332942  0.41355753  0.77051314     0.12600
C3048       C  0.50594389  0.39836221  0.78954317    -0.12900
N3049       N  0.55029134  0.44003150  0.84084276     0.64300
H3050       H  0.57567317  0.46493432  0.80161055     0.12100
N3051       N  0.51549497  0.40207248  0.74726108     0.60900
H3052       H  0.48703926  0.37898763  0.78613080     0.08300
O3053       O  0.52121615  0.32228407  0.85164544    -0.40500
O3054       O  0.47791507  0.29760839  0.84019263    -0.39700
O3055       O  0.46053810  0.40887857  0.84132895    -0.39700
O3056       O  0.49454742  0.43182877  0.86628658    -0.37400
O3057       O  0.52072938  0.38363389  0.74078436    -0.38300
O3058       O  0.49796963  0.40527032  0.73582885    -0.34500
O3059       O  0.56304742  0.42944088  0.85050858    -0.35900
O3060       O  0.55281391  0.46208560  0.84933837    -0.40200
C3061       C  0.50679366  0.20367225  0.97433103    -0.13900
C3062       C  0.53562316  0.21837621  0.96974789     0.16500
C3063       C  0.54936975  0.24726254  0.96543424     0.02800
C3064       C  0.53400895  0.26045884  0.96338678    -0.12400
C3065       C  0.50491236  0.24558468  0.96622372    -0.03400
C3066       C  0.49140916  0.21724094  0.97319803     0.02100
C3067       C  0.55053868  0.20336919  0.96474503     0.08900
N3068       N  0.57874503  0.26299568  0.96104054     0.65300
H3069       H  0.54473807  0.28217818  0.95800402     0.18200
N3070       N  0.46201889  0.20160270  0.97765271     0.75700
H3071       H  0.49606254  0.18143696  0.97778350     0.09700
C3072       C  0.56536532  0.19832993  0.98227363     0.03400
C3073       C  0.58425880  0.19000052  0.97554126    -0.05300
C3074       C  0.58868584  0.18689965  0.95147672    -0.23700
C3075       C  0.57204992  0.18967013  0.93423725     0.12600
C3076       C  0.55324070  0.19787146  0.94096184    -0.12900
N3077       N  0.56241064  0.20280130  0.00676628     0.64300
H3078       H  0.59664205  0.18755246  0.98901049     0.12100
N3079       N  0.57407830  0.18424789  0.90978053     0.60900
H3080       H  0.54159433  0.20126006  0.92737941     0.08300
O3081       O  0.45268405  0.20571337  0.99663370    -0.40500
O3082       O  0.44657592  0.17998578  0.96565953    -0.39700
O3083       O  0.58775569  0.26685743  0.94000980    -0.39700
O3084       O  0.59519138  0.27675302  0.97767095    -0.37400
O3085       O  0.55813994  0.16005462  0.90168911    -0.38300
O3086       O  0.58707556  0.20438775  0.89557756    -0.34500
O3087       O  0.54741931  0.18213374  0.01998459    -0.35900
O3088       O  0.57877935  0.22625225  0.01597305    -0.40200
C3089       C  0.59194086  0.38693655  0.97599392    -0.13900
C3090       C  0.60695733  0.40881268  0.95985816     0.16500
C3091       C  0.59259022  0.41269834  0.94109388     0.02800
C3092       C  0.56395430  0.39377653  0.93801077    -0.12400
C3093       C  0.54952914  0.37065533  0.95304782    -0.03400
C3094       C  0.56342239  0.36786584  0.97269625     0.02100
C3095       C  0.63787394  0.42411031  0.96049315     0.08900
N3096       N  0.60728130  0.43377205  0.92353078     0.65300
H3097       H  0.55352739  0.39583165  0.92263813     0.18200
N3098       N  0.54895874  0.34530922  0.98905468     0.75700
H3099       H  0.60274096  0.38381461  0.99049936     0.09700
C3100       C  0.65410192  0.45261086  0.96627553     0.03400
C3101       C  0.68322348  0.46655380  0.96406764    -0.05300
C3102       C  0.69673943  0.45254804  0.95626536    -0.23700
C3103       C  0.68038213  0.42344778  0.95214772     0.12600
C3104       C  0.65128401  0.40966845  0.95415438    -0.12900
N3105       N  0.64141859  0.46762012  0.97464095     0.64300
H3106       H  0.69518546  0.48872136  0.96779987     0.12100
N3107       N  0.69277498  0.40755778  0.94550342     0.60900
H3108       H  0.63896446  0.38757974  0.95010617     0.08300
O3109       O  0.53901175  0.34904556  0.00784108    -0.40500
O3110       O  0.55080819  0.32384785  0.98703778    -0.39700
O3111       O  0.61774868  0.42844477  0.90593804    -0.39700
O3112       O  0.60395497  0.45442515  0.92260155    -0.37400
O3113       O  0.69818820  0.39506875  0.96130698    -0.38300
O3114       O  0.69290508  0.40138926  0.92399650    -0.34500
O3115       O  0.63726396  0.46802581  0.99660140    -0.35900
O3116       O  0.64109226  0.48565019  0.96141510    -0.40200
C3117       C  0.33952302  0.27572597  0.90842919    -0.13900
C3118       C  0.31809992  0.25030088  0.91769426     0.16500
C3119       C  0.32477702  0.23583433  0.93431821     0.02800
C3120       C  0.35260138  0.24639567  0.94076616    -0.12400
C3121       C  0.37422939  0.27124423  0.93086867    -0.03400
C3122       C  0.36746829  0.28635097  0.91490812     0.02100
C3123       C  0.28981249  0.23706858  0.90722324     0.08900
N3124       N  0.30384188  0.20930696  0.94342844     0.65300
H3125       H  0.35741501  0.23456683  0.95307022     0.18200
N3126       N  0.38880078  0.31110366  0.90355912     0.75700
H3127       H  0.33464536  0.28670495  0.89527341     0.09700
C3128       C  0.26669779  0.23436342  0.91973124     0.03400
C3129       C  0.23993846  0.21923147  0.90977390    -0.05300
C3130       C  0.23571200  0.20662161  0.88738492    -0.23700
C3131       C  0.25922869  0.21053415  0.87446578     0.12600
C3132       C  0.28586467  0.22558154  0.88449359    -0.12900
N3133       N  0.27005803  0.24699838  0.94244469     0.64300
H3134       H  0.22229269  0.21661349  0.91998485     0.12100
N3135       N  0.25654668  0.19941958  0.85114133     0.60900
H3136       H  0.30358151  0.22780086  0.87464545     0.08300
O3137       O  0.39295453  0.33456973  0.90996486    -0.40500
O3138       O  0.39934948  0.30915537  0.88438027    -0.39700
O3139       O  0.29834378  0.18746475  0.93231981    -0.39700
O3140       O  0.29624473  0.20738278  0.96477586    -0.37400
O3141       O  0.25909788  0.21435755  0.83342772    -0.38300
O3142       O  0.25774607  0.17767927  0.84822516    -0.34500
O3143       O  0.27496619  0.27166963  0.94357886    -0.35900
O3144       O  0.26147587  0.23178806  0.96071056    -0.40200
C3145       C  0.82136683  0.52389030  0.10346962    -0.13900
C3146       C  0.81845078  0.50290105  0.08814350     0.16500
C3147       C  0.82101941  0.48081848  0.09700482     0.02800
C3148       C  0.82518850  0.47936710  0.12121916    -0.12400
C3149       C  0.82762471  0.50008913  0.13685038    -0.03400
C3150       C  0.82638563  0.52299118  0.12759458     0.02100
C3151       C  0.81489500  0.50570012  0.06267811     0.08900
N3152       N  0.81925387  0.45962543  0.08166626     0.65300
H3153       H  0.82638117  0.46178380  0.12776016     0.18200
N3154       N  0.83103363  0.54594517  0.14213458     0.75700
H3155       H  0.82043357  0.54147405  0.09652221     0.09700
C3156       C  0.79048158  0.50378288  0.05379808     0.03400
C3157       C  0.78843363  0.50790145  0.02962390    -0.05300
C3158       C  0.81066121  0.51442477  0.01403824    -0.23700
C3159       C  0.83552129  0.51718456  0.02332526     0.12600
C3160       C  0.83722121  0.51250761  0.04740584    -0.12900
N3161       N  0.76752225  0.49739565  0.06909688     0.64300
H3162       H  0.76921477  0.50574591  0.02306195     0.12100
N3163       N  0.85956740  0.52547424  0.00884231     0.60900
H3164       H  0.85639162  0.51487148  0.05435842     0.08300
O3165       O  0.81054840  0.54764835  0.14923078    -0.40500
O3166       O  0.85534164  0.56699642  0.14371303    -0.39700
O3167       O  0.84141753  0.46114651  0.07455457    -0.39700
O3168       O  0.79638268  0.43682495  0.07980147    -0.37400
O3169       O  0.87825619  0.55096576  0.00761772    -0.38300
O3170       O  0.86485709  0.50730694  0.00165583    -0.34500
O3171       O  0.76433806  0.51685939  0.07656249    -0.35900
O3172       O  0.74780251  0.47242782  0.07122956    -0.40200
C3173       C  0.00462332  0.60753522  0.24413596    -0.13900
C3174       C  0.98357889  0.58215372  0.25363153     0.16500
C3175       C  0.99073574  0.56756961  0.26971949     0.02800
C3176       C  0.01868580  0.57855869  0.27592367    -0.12400
C3177       C  0.04003409  0.60344772  0.26570525    -0.03400
C3178       C  0.03266416  0.61810749  0.24970775     0.02100
C3179       C  0.95501823  0.56979493  0.24412596     0.08900
N3180       N  0.97036672  0.54042793  0.27819909     0.65300
H3181       H  0.02373580  0.56671676  0.28798712     0.18200
N3182       N  0.05330681  0.64277377  0.23777988     0.75700
H3183       H  0.99931529  0.61861838  0.23143092     0.09700
C3184       C  0.93190305  0.56368947  0.25856157     0.03400
C3185       C  0.90514491  0.55042308  0.24868481    -0.05300
C3186       C  0.90112612  0.54334308  0.22458727    -0.23700
C3187       C  0.92439392  0.55081392  0.20994549     0.12600
C3188       C  0.95103902  0.56376373  0.21982142    -0.12900
N3189       N  0.93526598  0.57126876  0.28305673     0.64300
H3190       H  0.88735049  0.54485604  0.26005036     0.12100
N3191       N  0.92131600  0.54590357  0.18495457     0.60900
H3192       H  0.96873959  0.56885472  0.20848779     0.08300
O3193       O  0.06239874  0.64069722  0.21785115    -0.40500
O3194       O  0.05808188  0.66630577  0.24467430    -0.39700
O3195       O  0.96251224  0.51965302  0.26475385    -0.39700
O3196       O  0.96586732  0.53647995  0.30019965    -0.37400
O3197       O  0.92193146  0.56419006  0.17141915    -0.38300
O3198       O  0.92345905  0.52631267  0.17621160    -0.34500
O3199       O  0.94367488  0.59623829  0.28860386    -0.35900
O3200       O  0.92355770  0.55245043  0.29861318    -0.40200
C3201       C  0.46607832  0.12977342  0.59376400    -0.13900
C3202       C  0.46800888  0.15434022  0.58520209     0.16500
C3203       C  0.47225542  0.17531316  0.60146975     0.02800
C3204       C  0.47389624  0.17121471  0.62574239    -0.12400
C3205       C  0.47237027  0.14687785  0.63429636    -0.03400
C3206       C  0.46854467  0.12603529  0.61804725     0.02100
C3207       C  0.46417716  0.15708300  0.55945115     0.08900
N3208       N  0.47619361  0.20139381  0.59353963     0.65300
H3209       H  0.47719151  0.18758087  0.63797032     0.18200
N3210       N  0.46562129  0.10039526  0.62600648     0.75700
H3211       H  0.46209938  0.11314933  0.58157000     0.09700
C3212       C  0.48064330  0.15383855  0.54232299     0.03400
C3213       C  0.47544635  0.15475222  0.51821800    -0.05300
C3214       C  0.45420230  0.15930599  0.51042664    -0.23700
C3215       C  0.43791210  0.16296170  0.52760855     0.12600
C3216       C  0.44290221  0.16163740  0.55185072    -0.12900
N3217       N  0.50353180  0.15075658  0.54911020     0.64300
H3218       H  0.48880543  0.15263027  0.50550019     0.12100
N3219       N  0.41576142  0.16721546  0.52086090     0.60900
H3220       H  0.42975360  0.16371067  0.56482192     0.08300
O3221       O  0.48586607  0.09652858  0.62400290    -0.40500
O3222       O  0.44169668  0.08006657  0.63101856    -0.39700
O3223       O  0.45832899  0.20793713  0.59873297    -0.39700
O3224       O  0.49977753  0.21988407  0.58575386    -0.37400
O3225       O  0.39130760  0.14646422  0.51899278    -0.38300
O3226       O  0.41948766  0.19146723  0.52158819    -0.34500
O3227       O  0.50171343  0.12744692  0.54659198    -0.35900
O3228       O  0.52711685  0.17225729  0.55269946    -0.40200
C3229       C  0.27364231  0.05268060  0.39643623    -0.13900
C3230       C  0.29008904  0.08103796  0.40226516     0.16500
C3231       C  0.27891114  0.09840298  0.39958513     0.02800
C3232       C  0.25194640  0.08743603  0.39084993    -0.12400
C3233       C  0.23511593  0.05900030  0.38506746    -0.03400
C3234       C  0.24633533  0.04152146  0.38789286     0.02100
C3235       C  0.31975844  0.09308027  0.40877002     0.08900
N3236       N  0.29451966  0.12719700  0.40618856     0.65300
H3237       H  0.24409974  0.10144854  0.38891112     0.18200
N3238       N  0.23075517  0.01268659  0.38157085     0.75700
H3239       H  0.28229781  0.03929633  0.39794133     0.09700
C3240       C  0.32803104  0.08508654  0.42946847     0.03400
C3241       C  0.35638960  0.09874454  0.43564602    -0.05300
C3242       C  0.37647006  0.12056868  0.42158054    -0.23700
C3243       C  0.36824406  0.12756380  0.40032177     0.12600
C3244       C  0.34013737  0.11368233  0.39403426    -0.12900
N3245       N  0.30775672  0.06480004  0.44529002     0.64300
H3246       H  0.36247457  0.09360132  0.45222474     0.12100
N3247       N  0.38816194  0.14938599  0.38528148     0.60900
H3248       H  0.33408362  0.11951882  0.37778936     0.08300
O3249       O  0.21907177  0.99447447  0.39759322    -0.40500
O3250       O  0.23345961  0.00535146  0.36105724    -0.39700
O3251       O  0.30399425  0.14575419  0.39028654    -0.39700
O3252       O  0.29360244  0.13395539  0.42737235    -0.37400
O3253       O  0.40113870  0.14395265  0.36992875    -0.38300
O3254       O  0.38815504  0.17190104  0.38381176    -0.34500
O3255       O  0.30435276  0.04068696  0.44615639    -0.35900
O3256       O  0.29739984  0.07247353  0.46134153    -0.40200
C3257       C  0.45463793  0.34211494  0.04494785    -0.13900
C3258       C  0.45569859  0.32443332  0.06193996     0.16500
C3259       C  0.45209635  0.29861888  0.05469300     0.02800
C3260       C  0.44903020  0.29161059  0.03058021    -0.12400
C3261       C  0.44908703  0.30981411  0.01343369    -0.03400
C3262       C  0.45098346  0.33490361  0.02092306     0.02100
C3263       C  0.45974849  0.33297891  0.08718529     0.08900
N3264       N  0.45240109  0.27969890  0.07153270     0.65300
H3265       H  0.44748654  0.27224537  0.02521775     0.18200
N3266       N  0.44791798  0.35264709  0.00452418     0.75700
H3267       H  0.45618297  0.36144470  0.05043671     0.09700
C3268       C  0.48416317  0.35728520  0.09490009     0.03400
C3269       C  0.48737117  0.36478232  0.11888598    -0.05300
C3270       C  0.46661298  0.34833020  0.13553282    -0.23700
C3271       C  0.44164229  0.32467024  0.12757790     0.12600
C3272       C  0.43847403  0.31720142  0.10358895    -0.12900
N3273       N  0.50647851  0.37377792  0.07878856     0.64300
H3274       H  0.50676979  0.38284979  0.12465978     0.12100
N3275       N  0.41897542  0.30850001  0.14348710     0.60900
H3276       H  0.41919479  0.29908455  0.09769649     0.08300
O3277       O  0.46885272  0.37597206  0.99901963    -0.40500
O3278       O  0.42376858  0.34757480  0.99943091    -0.39700
O3279       O  0.42962641  0.25878646  0.07817818    -0.39700
O3280       O  0.47498199  0.28054067  0.07571916    -0.37400
O3281       O  0.40050892  0.31481743  0.14640113    -0.38300
O3282       O  0.41437662  0.28508007  0.15055910    -0.34500
O3283       O  0.51016390  0.39679125  0.07152149    -0.35900
O3284       O  0.52546904  0.36822033  0.07575200    -0.40200
C3285       C  0.63390780  0.41764435  0.17643852    -0.13900
C3286       C  0.64791381  0.44678370  0.17709892     0.16500
C3287       C  0.63257730  0.46029887  0.17599064     0.02800
C3288       C  0.60326261  0.44440508  0.17693109    -0.12400
C3289       C  0.58930193  0.41516208  0.17886664    -0.03400
C3290       C  0.60483097  0.40178183  0.17726881     0.02100
C3291       C  0.67774449  0.46177902  0.18341803     0.08900
N3292       N  0.64660756  0.49006535  0.17544658     0.65300
H3293       H  0.59162418  0.45498095  0.17821935     0.18200
N3294       N  0.59139323  0.37205002  0.17803330     0.75700
H3295       H  0.64566921  0.40714418  0.17703553     0.09700
C3296       C  0.68536452  0.46335442  0.20739253     0.03400
C3297       C  0.71249556  0.47062233  0.21322861    -0.05300
C3298       C  0.73246911  0.47651405  0.19553629    -0.23700
C3299       C  0.72557661  0.47749601  0.17159735     0.12600
C3300       C  0.69812503  0.46986201  0.16571440    -0.12900
N3301       N  0.66516396  0.45549787  0.22592849     0.64300
H3302       H  0.71764559  0.47047175  0.23173884     0.12100
N3303       N  0.74533942  0.48391427  0.15295628     0.60900
H3304       H  0.69230358  0.46857995  0.14723530     0.08300
O3305       O  0.59115286  0.36018562  0.19714833    -0.40500
O3306       O  0.58591000  0.35869445  0.15881931    -0.39700
O3307       O  0.65676669  0.50283411  0.15617764    -0.39700
O3308       O  0.65269581  0.50360415  0.19460106    -0.37400
O3309       O  0.74881825  0.46488945  0.14482484    -0.38300
O3310       O  0.75376486  0.50595208  0.14104422    -0.34500
O3311       O  0.65254995  0.43074391  0.23359553    -0.35900
O3312       O  0.66432604  0.47421516  0.23774897    -0.40200
C3313       C  0.47797401  0.28603452  0.31066952    -0.13900
C3314       C  0.44997999  0.27318116  0.31753791     0.16500
C3315       C  0.43190871  0.27917982  0.30508670     0.02800
C3316       C  0.44171432  0.29638767  0.28492929    -0.12400
C3317       C  0.46947576  0.30793183  0.27712447    -0.03400
C3318       C  0.48788456  0.30314942  0.29076528     0.02100
C3319       C  0.44101492  0.25325564  0.33748425     0.08900
N3320       N  0.40350760  0.26742121  0.31223667     0.65300
H3321       H  0.42732243  0.30007213  0.27503060     0.18200
N3322       N  0.51661833  0.31491299  0.28453010     0.75700
H3323       H  0.49224710  0.28221902  0.32065626     0.09700
C3324       C  0.44390146  0.22976354  0.33540586     0.03400
C3325       C  0.44612641  0.21692320  0.35572514    -0.05300
C3326       C  0.44518877  0.22679859  0.37836598    -0.23700
C3327       C  0.43854753  0.24791697  0.38049664     0.12600
C3328       C  0.43683145  0.26124358  0.35997921    -0.12900
N3329       N  0.44734214  0.22043538  0.31273877     0.64300
H3330       H  0.45019737  0.20004463  0.35371904     0.12100
N3331       N  0.43598917  0.25773388  0.40319577     0.60900
H3332       H  0.43457617  0.27928938  0.36173404     0.08300
O3333       O  0.52437642  0.29988252  0.27443052    -0.40500
O3334       O  0.53468244  0.33806760  0.29324763    -0.39700
O3335       O  0.39629563  0.28252335  0.32298188    -0.39700
O3336       O  0.38502008  0.24460535  0.30332419    -0.37400
O3337       O  0.41203956  0.24870805  0.41195908    -0.38300
O3338       O  0.45675237  0.27895287  0.41213293    -0.34500
O3339       O  0.47137833  0.22652569  0.30597916    -0.35900
O3340       O  0.42620271  0.20155039  0.30205962    -0.40200
C3341       C  0.38928638  0.38066401  0.23550117    -0.13900
C3342       C  0.40126163  0.40956357  0.23854852     0.16500
C3343       C  0.42974867  0.42744104  0.23322457     0.02800
C3344       C  0.44579711  0.41643009  0.22555363    -0.12400
C3345       C  0.43431013  0.38752131  0.22284710    -0.03400
C3346       C  0.40550988  0.36950763  0.22769465     0.02100
C3347       C  0.38481622  0.42132189  0.24841790     0.08900
N3348       N  0.44271419  0.45707538  0.23520014     0.65300
H3349       H  0.46763476  0.43095268  0.22171899     0.18200
N3350       N  0.39239310  0.33998703  0.22489607     0.75700
H3351       H  0.36741270  0.36668081  0.23961626     0.09700
C3352       C  0.36160528  0.41917321  0.23650605     0.03400
C3353       C  0.35014226  0.43503590  0.24426982    -0.05300
C3354       C  0.36172551  0.45321904  0.26362667    -0.23700
C3355       C  0.38325880  0.45343027  0.27670531     0.12600
C3356       C  0.39439741  0.43736023  0.26917229    -0.12900
N3357       N  0.35076788  0.40263256  0.21558896     0.64300
H3358       H  0.33340044  0.43454749  0.23420175     0.12100
N3359       N  0.39418477  0.47008444  0.29757561     0.60900
H3360       H  0.41147245  0.43830925  0.27905378     0.08300
O3361       O  0.38021928  0.32882698  0.20568150    -0.40500
O3362       O  0.38829092  0.32484186  0.24283942    -0.39700
O3363       O  0.45858051  0.46953689  0.25251585    -0.39700
O3364       O  0.44303044  0.47102390  0.21748876    -0.37400
O3365       O  0.38346660  0.45974860  0.31747409    -0.38300
O3366       O  0.41741795  0.49264839  0.29669174    -0.34500
O3367       O  0.32822417  0.37940055  0.21673392    -0.35900
O3368       O  0.36037332  0.41353408  0.19558878    -0.40200
C3369       C  0.72595864  0.64342672  0.43044751    -0.13900
C3370       C  0.70936257  0.64932104  0.41579703     0.16500
C3371       C  0.68143777  0.62790985  0.41163277     0.02800
C3372       C  0.67158594  0.60082385  0.42055355    -0.12400
C3373       C  0.68911107  0.59450869  0.43353475    -0.03400
C3374       C  0.71622326  0.61655064  0.43928376     0.02100
C3375       C  0.72354378  0.67667200  0.40296448     0.08900
N3376       N  0.66325516  0.63269189  0.39733502     0.65300
H3377       H  0.65059250  0.58433959  0.41617064     0.18200
N3378       N  0.73433637  0.61204385  0.45398193     0.75700
H3379       H  0.74722000  0.65972163  0.43432744     0.09700
C3380       C  0.71704799  0.69774611  0.40639255     0.03400
C3381       C  0.73448576  0.72453626  0.39664835    -0.05300
C3382       C  0.75888944  0.73114496  0.38396005    -0.23700
C3383       C  0.76446338  0.70955320  0.37964205     0.12600
C3384       C  0.74675836  0.68279490  0.38886487    -0.12900
N3385       N  0.69426374  0.69315582  0.42115652     0.64300
H3386       H  0.72978979  0.74071366  0.40033552     0.12100
N3387       N  0.78845803  0.71448093  0.36647004     0.60900
H3388       H  0.75194716  0.66683406  0.38583889     0.08300
O3389       O  0.75354969  0.60971979  0.44458867    -0.40500
O3390       O  0.73490120  0.61630797  0.47600030    -0.39700
O3391       O  0.66241166  0.62852795  0.37528454    -0.39700
O3392       O  0.64323978  0.63325424  0.40714820    -0.37400
O3393       O  0.78589022  0.70787315  0.34483441    -0.38300
O3394       O  0.81017473  0.71933886  0.37742517    -0.34500
O3395       O  0.69792423  0.69647134  0.44326077    -0.35900
O3396       O  0.67382735  0.69338722  0.41195424    -0.40200
C3397       C  0.66834143  0.53224459  0.55719351    -0.13900
C3398       C  0.64436880  0.50838435  0.56607934     0.16500
C3399       C  0.62576997  0.48798678  0.54996705     0.02800
C3400       C  0.63135585  0.49172745  0.52564421    -0.12400
C3401       C  0.65554744  0.51526968  0.51680279    -0.03400
C3402       C  0.67418691  0.53569289  0.53280155     0.02100
C3403       C  0.63866539  0.50562697  0.59204149     0.08900
N3404       N  0.60152421  0.46295870  0.55801990     0.65300
H3405       H  0.61688592  0.47571492  0.51356597     0.18200
N3406       N  0.69811971  0.56077825  0.52450065     0.75700
H3407       H  0.68231881  0.54861289  0.56921444     0.09700
C3408       C  0.65888548  0.50818813  0.60837829     0.03400
C3409       C  0.65344834  0.50656707  0.63268828    -0.05300
C3410       C  0.62783802  0.50193158  0.64145606    -0.23700
C3411       C  0.60742545  0.49916892  0.62512309     0.12600
C3412       C  0.61309593  0.50128206  0.60068319    -0.12900
N3413       N  0.68468430  0.51131633  0.60056739     0.64300
H3414       H  0.66929794  0.50827585  0.64478656     0.12100
N3415       N  0.58125803  0.49510203  0.63296672     0.60900
H3416       H  0.59755713  0.49990197  0.58840364     0.08300
O3417       O  0.69591788  0.58154378  0.51942482    -0.40500
O3418       O  0.72204249  0.56394527  0.52667738    -0.39700
O3419       O  0.57760713  0.45871231  0.55319082    -0.39700
O3420       O  0.60390965  0.44301802  0.56550301    -0.37400
O3421       O  0.57840520  0.51594278  0.63534481    -0.38300
O3422       O  0.55988261  0.47090681  0.63265821    -0.34500
O3423       O  0.70696154  0.53460875  0.60282871    -0.35900
O3424       O  0.68601526  0.48982032  0.59660025    -0.40200
C3425       C  0.77562161  0.50604145  0.32002826    -0.13900
C3426       C  0.76649465  0.52493913  0.31678906     0.16500
C3427       C  0.77010433  0.53779222  0.29452388     0.02800
C3428       C  0.78119685  0.53030985  0.27562963    -0.12400
C3429       C  0.78905078  0.51028323  0.27849953    -0.03400
C3430       C  0.78692275  0.49871018  0.30123596     0.02100
C3431       C  0.75171535  0.52910462  0.33668719     0.08900
N3432       N  0.76304668  0.55872438  0.29087970     0.65300
H3433       H  0.78296357  0.53976402  0.25844059     0.18200
N3434       N  0.79622565  0.47963890  0.30568818     0.75700
H3435       H  0.77321557  0.49626349  0.33717806     0.09700
C3436       C  0.72293441  0.51936851  0.33542071     0.03400
C3437       C  0.70832725  0.51783636  0.35604255    -0.05300
C3438       C  0.72159837  0.52504549  0.37824795    -0.23700
C3439       C  0.75083580  0.53693716  0.37917807     0.12600
C3440       C  0.76556085  0.53883204  0.35843303    -0.12900
N3441       N  0.70755480  0.50810996  0.31397604     0.64300
H3442       H  0.68596135  0.50899955  0.35483224     0.12100
N3443       N  0.76562272  0.54522080  0.40114295     0.60900
H3444       H  0.78769607  0.54639840  0.35955084     0.08300
O3445       O  0.77884827  0.45373308  0.30515489    -0.40500
O3446       O  0.81942279  0.48843357  0.31574647    -0.39700
O3447       O  0.77923556  0.58306825  0.29857466    -0.39700
O3448       O  0.74508392  0.55490107  0.27546101    -0.37400
O3449       O  0.76975710  0.52820770  0.41245151    -0.38300
O3450       O  0.77924377  0.57074052  0.40659636    -0.34500
O3451       O  0.69969424  0.48327682  0.30836178    -0.35900
O3452       O  0.69587722  0.51988742  0.30445627    -0.40200
C3453       C  0.56993681  0.44875864  0.34721463    -0.13900
C3454       C  0.58162986  0.46968647  0.32990245     0.16500
C3455       C  0.60279941  0.49684110  0.33637576     0.02800
C3456       C  0.61285200  0.50221483  0.35976406    -0.12400
C3457       C  0.60236382  0.48069928  0.37666274    -0.03400
C3458       C  0.58018253  0.45393268  0.37036769     0.02100
C3459       C  0.57272842  0.46133625  0.30506953     0.08900
N3460       N  0.61472503  0.51891289  0.31934880     0.65300
H3461       H  0.63000318  0.52281005  0.36433681     0.18200
N3462       N  0.56800061  0.43163715  0.38721871     0.75700
H3463       H  0.55351681  0.42786135  0.34243721     0.09700
C3464       C  0.58840674  0.45442074  0.28997424     0.03400
C3465       C  0.57644098  0.43948007  0.26911131    -0.05300
C3466       C  0.54889819  0.43100078  0.26306592    -0.23700
C3467       C  0.53366930  0.43912956  0.27741430     0.12600
C3468       C  0.54571891  0.45432155  0.29826857    -0.12900
N3469       N  0.61530265  0.45971310  0.29684084     0.64300
H3470       H  0.58812453  0.43292141  0.25831939     0.12100
N3471       N  0.50514612  0.42975284  0.27233553     0.60900
H3472       H  0.53324768  0.45889125  0.31005637     0.08300
O3473       O  0.54488663  0.42512558  0.39655868    -0.40500
O3474       O  0.57628132  0.41448917  0.38801441    -0.39700
O3475       O  0.60560932  0.53534081  0.31796852    -0.39700
O3476       O  0.63803200  0.52591499  0.31014819    -0.37400
O3477       O  0.49879887  0.44674358  0.26412093    -0.38300
O3478       O  0.48617506  0.40653670  0.28034416    -0.34500
O3479       O  0.61708218  0.44174416  0.30899988    -0.35900
O3480       O  0.63673308  0.47861704  0.28639860    -0.40200
C3481       C  0.57572119  0.37646613  0.48231665    -0.13900
C3482       C  0.55103621  0.36272352  0.46909832     0.16500
C3483       C  0.54341260  0.37852812  0.45493443     0.02800
C3484       C  0.56207654  0.40728402  0.45221222    -0.12400
C3485       C  0.58845796  0.42020471  0.46290249    -0.03400
C3486       C  0.59456928  0.40497178  0.47915623     0.02100
C3487       C  0.53680161  0.33203932  0.46685418     0.08900
N3488       N  0.51832123  0.36529796  0.44128357     0.65300
H3489       H  0.55707083  0.41892291  0.43991806     0.18200
N3490       N  0.62045320  0.41788214  0.49166073     0.75700
H3491       H  0.58141542  0.36455969  0.49369401     0.09700
C3492       C  0.55072787  0.32012339  0.45562389     0.03400
C3493       C  0.53715688  0.29137735  0.45240308    -0.05300
C3494       C  0.50966199  0.27378193  0.46027415    -0.23700
C3495       C  0.49626264  0.28545754  0.47297215     0.12600
C3496       C  0.50976844  0.31457136  0.47581631    -0.12900
N3497       N  0.57835699  0.33716790  0.44640522     0.64300
H3498       H  0.54797440  0.28286714  0.44287526     0.12100
N3499       N  0.46886772  0.26823440  0.48254713     0.60900
H3500       H  0.49916207  0.32355331  0.48494421     0.08300
O3501       O  0.62173327  0.42770795  0.51207275    -0.40500
O3502       O  0.63966140  0.41393833  0.48483064    -0.39700
O3503       O  0.49786823  0.36743456  0.44771466    -0.39700
O3504       O  0.51855568  0.35648070  0.42073475    -0.37400
O3505       O  0.46601794  0.25941690  0.50357427    -0.38300
O3506       O  0.44806066  0.26589877  0.47168821    -0.34500
O3507       O  0.59882960  0.33970933  0.45798492    -0.35900
O3508       O  0.58176425  0.34521791  0.42510721    -0.40200
C3509       C  0.79323184  0.30503421  0.55484950    -0.13900
C3510       C  0.81806864  0.32805291  0.56321109     0.16500
C3511       C  0.83987148  0.34402442  0.54710170     0.02800
C3512       C  0.83612002  0.33752135  0.52291397    -0.12400
C3513       C  0.81103094  0.31490017  0.51433456    -0.03400
C3514       C  0.78953081  0.29831531  0.53064383     0.02100
C3515       C  0.82111132  0.33426674  0.58893803     0.08900
N3516       N  0.86623582  0.36636133  0.55508991     0.65300
H3517       H  0.85300958  0.35029231  0.51073796     0.18200
N3518       N  0.76328523  0.27560910  0.52283662     0.75700
H3519       H  0.77644359  0.29246868  0.56717456     0.09700
C3520       C  0.81971972  0.35683322  0.59847719     0.03400
C3521       C  0.82182816  0.36133750  0.62307021    -0.05300
C3522       C  0.82475829  0.34330944  0.63856552    -0.23700
C3523       C  0.82617762  0.32069254  0.62877886     0.12600
C3524       C  0.82441358  0.31649860  0.60422805    -0.12900
N3525       N  0.81457796  0.37437644  0.58358643     0.64300
H3526       H  0.82020981  0.37849235  0.63010037     0.12100
N3527       N  0.82964277  0.30182395  0.64340890     0.60900
H3528       H  0.82546171  0.29907826  0.59702680     0.08300
O3529       O  0.74363482  0.27978006  0.51828209    -0.40500
O3530       O  0.75814648  0.25092814  0.52495687    -0.39700
O3531       O  0.88522086  0.36138223  0.56018115    -0.39700
O3532       O  0.87263778  0.39123047  0.55139572    -0.37400
O3533       O  0.80864160  0.27846065  0.64873130    -0.38300
O3534       O  0.85380966  0.30604816  0.64689255    -0.34500
O3535       O  0.78971707  0.36744267  0.57910246    -0.35900
O3536       O  0.83394142  0.39914731  0.57970920    -0.40200
C3537       C  0.86077364  0.43565875  0.30208261    -0.13900
C3538       C  0.84305319  0.40690995  0.30596102     0.16500
C3539       C  0.82379891  0.39036418  0.28833978     0.02800
C3540       C  0.82106969  0.40298539  0.26802659    -0.12400
C3541       C  0.83720554  0.43197080  0.26493847    -0.03400
C3542       C  0.85805605  0.44834032  0.28161834     0.02100
C3543       C  0.83933141  0.39596715  0.33029537     0.08900
N3544       N  0.80465406  0.36125222  0.29209801     0.65300
H3545       H  0.80492019  0.39026598  0.25531192     0.18200
N3546       N  0.87423307  0.47804100  0.27945854     0.75700
H3547       H  0.87511953  0.44858704  0.31586255     0.09700
C3548       C  0.85110147  0.38045208  0.33834516     0.03400
C3549       C  0.84390084  0.36796277  0.36086291    -0.05300
C3550       C  0.82448308  0.37014570  0.37511585    -0.23700
C3551       C  0.81361229  0.38666056  0.36721698     0.12600
C3552       C  0.82129481  0.39951052  0.34507856    -0.12900
N3553       N  0.86952766  0.37641922  0.32360696     0.64300
H3554       H  0.85233172  0.35533237  0.36665337     0.12100
N3555       N  0.79430956  0.39021173  0.38124004     0.60900
H3556       H  0.81221065  0.41148507  0.33894651     0.08300
O3557       O  0.86553286  0.49264716  0.28883824    -0.40500
O3558       O  0.89927958  0.48962356  0.27264723    -0.39700
O3559       O  0.78110344  0.35336953  0.30124322    -0.39700
O3560       O  0.80874958  0.34362603  0.28181676    -0.37400
O3561       O  0.76848767  0.37496643  0.37732177    -0.38300
O3562       O  0.80306094  0.41224306  0.39318256    -0.34500
O3563       O  0.89545591  0.39060235  0.32736431    -0.35900
O3564       O  0.85975925  0.35500564  0.31066903    -0.40200
C3565       C  0.64842304  0.25034593  0.46284279    -0.13900
C3566       C  0.63472067  0.22128774  0.46548300     0.16500
C3567       C  0.65099575  0.20856678  0.46634213     0.02800
C3568       C  0.68022309  0.22497274  0.46388707    -0.12400
C3569       C  0.69355227  0.25391008  0.46020452    -0.03400
C3570       C  0.67734793  0.26661288  0.46035283     0.02100
C3571       C  0.60358784  0.20525070  0.46413840     0.08900
N3572       N  0.63819890  0.17904566  0.46895676     0.65300
H3573       H  0.69234603  0.21485148  0.46356315     0.18200
N3574       N  0.68982309  0.29613477  0.45807762     0.75700
H3575       H  0.63646800  0.26055511  0.46137802     0.09700
C3576       C  0.58763414  0.21353293  0.47753588     0.03400
C3577       C  0.56018581  0.20461279  0.47093829    -0.05300
C3578       C  0.54777478  0.18694972  0.45148883    -0.23700
C3579       C  0.56261756  0.17656765  0.43934639     0.12600
C3580       C  0.59039324  0.18589806  0.44565716    -0.12900
N3581       N  0.59951180  0.23229166  0.49710888     0.64300
H3582       H  0.54881377  0.21247708  0.48052574     0.12100
N3583       N  0.55095080  0.15905793  0.41902192     0.60900
H3584       H  0.60234067  0.17986874  0.43469067     0.08300
O3585       O  0.68850745  0.30957795  0.47549664    -0.40500
O3586       O  0.69416699  0.30682208  0.43764512    -0.39700
O3587       O  0.63722386  0.16458742  0.45138708    -0.39700
O3588       O  0.63405842  0.16867573  0.48949492    -0.37400
O3589       O  0.55398222  0.17000306  0.39882431    -0.38300
O3590       O  0.54306043  0.13351349  0.42053986    -0.34500
O3591       O  0.60311789  0.25646956  0.49563212    -0.35900
O3592       O  0.60000707  0.22269583  0.51722823    -0.40200
C3593       C  0.78866192  0.42905118  0.46373708    -0.13900
C3594       C  0.76043241  0.41947554  0.46850898     0.16500
C3595       C  0.74181955  0.39077047  0.47196637     0.02800
C3596       C  0.75111241  0.37211951  0.46901419    -0.12400
C3597       C  0.77847886  0.38107452  0.46167030    -0.03400
C3598       C  0.79792876  0.41009302  0.46059483     0.02100
C3599       C  0.74909959  0.43792331  0.46440394     0.08900
N3600       N  0.71263984  0.37994293  0.47532206     0.65300
H3601       H  0.73601772  0.34999772  0.47058817     0.18200
N3602       N  0.82662465  0.42058385  0.45513448     0.75700
H3603       H  0.80317774  0.45117643  0.46103581     0.09700
C3604       C  0.74245711  0.45046247  0.48292916     0.03400
C3605       C  0.72764881  0.46400171  0.47798999    -0.05300
C3606       C  0.71876569  0.46462863  0.45480873    -0.23700
C3607       C  0.72637226  0.45270271  0.43622525     0.12600
C3608       C  0.74148451  0.43976044  0.44120435    -0.12900
N3609       N  0.75014761  0.44917522  0.50680822     0.64300
H3610       H  0.72225575  0.47316676  0.49242430     0.12100
N3611       N  0.71869414  0.45317908  0.41212135     0.60900
H3612       H  0.74635774  0.43000287  0.42687893     0.08300
O3613       O  0.84348360  0.42500828  0.47175718    -0.40500
O3614       O  0.83598829  0.43054375  0.43483954    -0.39700
O3615       O  0.69687401  0.37308840  0.45746858    -0.39700
O3616       O  0.70202213  0.37188533  0.49565347    -0.37400
O3617       O  0.73645002  0.47110884  0.39804485    -0.38300
O3618       O  0.69721332  0.43214443  0.40379887    -0.34500
O3619       O  0.77179759  0.46976961  0.51540010    -0.35900
O3620       O  0.73266336  0.43039683  0.52048685    -0.40200
C3621       C  0.88830649  0.28390177  0.40245530    -0.13900
C3622       C  0.88437335  0.25944038  0.41319200     0.16500
C3623       C  0.86549974  0.24781360  0.43228959     0.02800
C3624       C  0.84956528  0.25944227  0.43922272    -0.12400
C3625       C  0.85275551  0.28342339  0.42811504    -0.03400
C3626       C  0.87316442  0.29630548  0.41011115     0.02100
C3627       C  0.89901055  0.24540958  0.40384920     0.08900
N3628       N  0.86174522  0.22368002  0.44442979     0.65300
H3629       H  0.83435183  0.24946829  0.45332868     0.18200
N3630       N  0.87796992  0.32123705  0.39875320     0.75700
H3631       H  0.90307870  0.29330348  0.38797836     0.09700
C3632       C  0.89129931  0.23114235  0.38201851     0.03400
C3633       C  0.90316127  0.21552195  0.37475249    -0.05300
C3634       C  0.92310538  0.21394337  0.38871837    -0.23700
C3635       C  0.93192138  0.22948925  0.41004536     0.12600
C3636       C  0.91965907  0.24478369  0.41748205    -0.12900
N3637       N  0.87036672  0.23114949  0.36755233     0.64300
H3638       H  0.89621422  0.20403810  0.35824076     0.12100
N3639       N  0.95235493  0.22905224  0.42490544     0.60900
H3640       H  0.92592030  0.25582231  0.43423200     0.08300
O3641       O  0.86851931  0.31985011  0.37818375    -0.40500
O3642       O  0.89666477  0.34457370  0.40670633    -0.39700
O3643       O  0.87474733  0.22658609  0.46349439    -0.39700
O3644       O  0.84204846  0.19980350  0.43854291    -0.37400
O3645       O  0.97743801  0.24870604  0.42353232    -0.38300
O3646       O  0.94457284  0.21278496  0.44249588    -0.34500
O3647       O  0.87751043  0.24599933  0.34906456    -0.35900
O3648       O  0.84514397  0.21232226  0.37042395    -0.40200
C3649       C  0.62547987  0.13508254  0.04698568    -0.13900
C3650       C  0.64017545  0.15842137  0.06164449     0.16500
C3651       C  0.66234395  0.18330396  0.05219260     0.02800
C3652       C  0.66944504  0.18456761  0.02828028    -0.12400
C3653       C  0.65474842  0.16127957  0.01335608    -0.03400
C3654       C  0.63258800  0.13620535  0.02303708     0.02100
C3655       C  0.63364616  0.15564241  0.08719221     0.08900
N3656       N  0.67735632  0.20767795  0.06655593     0.65300
H3657       H  0.68624637  0.20416116  0.02131498     0.18200
N3658       N  0.61761078  0.11145543  0.00910905     0.75700
H3659       H  0.60880216  0.11565826  0.05433730     0.09700
C3660       C  0.60781878  0.15074479  0.09563816     0.03400
C3661       C  0.60183436  0.14665819  0.11988391    -0.05300
C3662       C  0.62125628  0.14730920  0.13609831    -0.23700
C3663       C  0.64720019  0.15216620  0.12742441     0.12600
C3664       C  0.65309530  0.15631072  0.10316334    -0.12900
N3665       N  0.58777066  0.15059125  0.07987143     0.64300
H3666       H  0.58189046  0.14317103  0.12600170     0.12100
N3667       N  0.66790892  0.15312391  0.14286525     0.60900
H3668       H  0.67288754  0.15970915  0.09668335     0.08300
O3669       O  0.59350814  0.10412268  0.00168478    -0.40500
O3670       O  0.62590790  0.09431930  0.00839735    -0.39700
O3671       O  0.70160284  0.21501115  0.07357856    -0.39700
O3672       O  0.66874366  0.22449949  0.06828620    -0.37400
O3673       O  0.66893591  0.13134020  0.14613365    -0.38300
O3674       O  0.68818916  0.17644409  0.14922493    -0.34500
O3675       O  0.56633865  0.12769744  0.07435098    -0.35900
O3676       O  0.58859440  0.17314070  0.07550050    -0.40200
C3677       C  0.52630138  0.20690560  0.17311362    -0.13900
C3678       C  0.53713957  0.23298371  0.18409085     0.16500
C3679       C  0.56110679  0.24332386  0.19829385     0.02800
C3680       C  0.57379892  0.22766371  0.20138369    -0.12400
C3681       C  0.56267489  0.20102857  0.19121661    -0.03400
C3682       C  0.53882391  0.19083611  0.17654383     0.02100
C3683       C  0.52263018  0.24879510  0.18232240     0.08900
N3684       N  0.57150722  0.26872049  0.21133540     0.65300
H3685       H  0.59172223  0.23599250  0.21302975     0.18200
N3686       N  0.52687454  0.16427153  0.16520471     0.75700
H3687       H  0.50778166  0.19879367  0.16221568     0.09700
C3688       C  0.53442985  0.27392995  0.16941181     0.03400
C3689       C  0.52520157  0.29254643  0.17351449    -0.05300
C3690       C  0.50410373  0.28641249  0.19017296    -0.23700
C3691       C  0.49026483  0.25995585  0.20117325     0.12600
C3692       C  0.49973807  0.24141441  0.19725689    -0.12900
N3693       N  0.55661667  0.28134943  0.15289211     0.64300
H3694       H  0.53553952  0.31254683  0.16453957     0.12100
N3695       N  0.46876522  0.25288327  0.21831890     0.60900
H3696       H  0.49059716  0.22213619  0.20730628     0.08300
O3697       O  0.53404878  0.16290987  0.14425160    -0.40500
O3698       O  0.50520677  0.14365875  0.17385275    -0.39700
O3699       O  0.56098173  0.26811213  0.23131013    -0.39700
O3700       O  0.59478679  0.28968149  0.20577710    -0.37400
O3701       O  0.44356123  0.23723494  0.21245786    -0.38300
O3702       O  0.47501485  0.25799382  0.23996063    -0.34500
O3703       O  0.55089730  0.27549593  0.13125707    -0.35900
O3704       O  0.58139645  0.29883008  0.15878268    -0.40200
C3705       C  0.69876322  0.18309872  0.30501606    -0.13900
C3706       C  0.68783972  0.18911425  0.32495883     0.16500
C3707       C  0.66007106  0.18306784  0.32449833     0.02800
C3708       C  0.64428772  0.17257805  0.30376891    -0.12400
C3709       C  0.65600031  0.16894484  0.28295474    -0.03400
C3710       C  0.68329689  0.17328797  0.28405607     0.02100
C3711       C  0.70725012  0.20680585  0.34382533     0.08900
N3712       N  0.64874641  0.19066287  0.34383144     0.65300
H3713       H  0.62348558  0.16946732  0.30350391     0.18200
N3714       N  0.69667462  0.17030093  0.26361137     0.75700
H3715       H  0.72021778  0.18799081  0.30517393     0.09700
C3716       C  0.70628638  0.19705582  0.36702861     0.03400
C3717       C  0.72331484  0.21579499  0.38464907    -0.05300
C3718       C  0.74134754  0.24429163  0.37951707    -0.23700
C3719       C  0.74340918  0.25352168  0.35583456     0.12600
C3720       C  0.72638591  0.23478861  0.33835193    -0.12900
N3721       N  0.68815108  0.16832248  0.37297914     0.64300
H3722       H  0.72148674  0.20818034  0.40262954     0.12100
N3723       N  0.76238591  0.28189106  0.34921475     0.60900
H3724       H  0.72753015  0.24235349  0.32043082     0.08300
O3725       O  0.69724483  0.14820347  0.26086855    -0.40500
O3726       O  0.71263493  0.19153069  0.25129522    -0.39700
O3727       O  0.65371889  0.21535417  0.34512843    -0.39700
O3728       O  0.62900538  0.17178217  0.35590582    -0.37400
O3729       O  0.78627552  0.28873436  0.34145882    -0.38300
O3730       O  0.75335414  0.29822620  0.34623233    -0.34500
O3731       O  0.69712306  0.15178829  0.37134054    -0.35900
O3732       O  0.66636089  0.16113688  0.38493272    -0.40200
C3733       C  0.49449858  0.12672754  0.27949787    -0.13900
C3734       C  0.50098324  0.11953070  0.30136144     0.16500
C3735       C  0.51932029  0.10929058  0.30203905     0.02800
C3736       C  0.53321439  0.10934018  0.28135033    -0.12400
C3737       C  0.52913084  0.11963771  0.26008737    -0.03400
C3738       C  0.50848135  0.12687509  0.25885208     0.02100
C3739       C  0.49304479  0.12805616  0.32337499     0.08900
N3740       N  0.52679172  0.10230391  0.32405514     0.65300
H3741       H  0.54945639  0.10425228  0.28249565     0.18200
N3742       N  0.50343842  0.13691056  0.23724851     0.75700
H3743       H  0.48028122  0.13446958  0.27881947     0.09700
C3744       C  0.50577960  0.15657687  0.32888985     0.03400
C3745       C  0.49954749  0.16477382  0.35017936    -0.05300
C3746       C  0.48090843  0.14506374  0.36666517    -0.23700
C3747       C  0.46729179  0.11638797  0.36073415     0.12600
C3748       C  0.47365845  0.10812835  0.33922296    -0.12900
N3749       N  0.52633795  0.17749259  0.31357322     0.64300
H3750       H  0.51011175  0.18691094  0.35402529     0.12100
N3751       N  0.44754947  0.09540494  0.37642675     0.60900
H3752       H  0.46366908  0.08613250  0.33497427     0.08300
O3753       O  0.51506466  0.16284767  0.23374452    -0.40500
O3754       O  0.48329101  0.12030407  0.22427413    -0.39700
O3755       O  0.51683692  0.07698847  0.32941030    -0.39700
O3756       O  0.54714394  0.12098253  0.33566278    -0.37400
O3757       O  0.42187237  0.08628761  0.37362017    -0.38300
O3758       O  0.45504466  0.08196668  0.38928987    -0.34500
O3759       O  0.52007465  0.19219056  0.30107394    -0.35900
O3760       O  0.55166456  0.18494404  0.31615227    -0.40200
C3761       C  0.71205137  0.28884536  0.21400982    -0.13900
C3762       C  0.71653657  0.29652161  0.19006563     0.16500
C3763       C  0.70492630  0.27564367  0.17251997     0.02800
C3764       C  0.68831251  0.24746705  0.17924338    -0.12400
C3765       C  0.68279022  0.23991104  0.20329910    -0.03400
C3766       C  0.69539255  0.26092551  0.22075505     0.02100
C3767       C  0.73331528  0.32667159  0.18452124     0.08900
N3768       N  0.70891913  0.28278222  0.14792741     0.65300
H3769       H  0.67855058  0.23164040  0.16562238     0.18200
N3770       N  0.69152714  0.25424308  0.24547058     0.75700
H3771       H  0.72129743  0.30477871  0.22760942     0.09700
C3772       C  0.72087502  0.34304814  0.18488548     0.03400
C3773       C  0.73754497  0.37208079  0.18698287    -0.05300
C3774       C  0.76673129  0.38535254  0.18904873    -0.23700
C3775       C  0.77928833  0.36899199  0.18658331     0.12600
C3776       C  0.76247658  0.33988446  0.18440721    -0.12900
N3777       N  0.69120250  0.33027366  0.18525320     0.64300
H3778       H  0.72736002  0.38407923  0.18847993     0.12100
N3779       N  0.80881039  0.38110872  0.18840867     0.60900
H3780       H  0.77219300  0.32737986  0.18441754     0.08300
O3781       O  0.67564185  0.25934305  0.25755402    -0.40500
O3782       O  0.70776681  0.24832882  0.25591404    -0.39700
O3783       O  0.72542198  0.27853113  0.13588716    -0.39700
O3784       O  0.69198228  0.28767546  0.13741696    -0.37400
O3785       O  0.81948401  0.38170124  0.20825704    -0.38300
O3786       O  0.82319786  0.38602186  0.16980183    -0.34500
O3787       O  0.67868400  0.32623857  0.20482189    -0.35900
O3788       O  0.67840337  0.32805702  0.16621857    -0.40200
C3789       C  0.58700540  0.02967290  0.24225325    -0.13900
C3790       C  0.56294143  0.00880275  0.23096840     0.16500
C3791       C  0.55154639  0.01603626  0.21205240     0.02800
C3792       C  0.56363635  0.04401322  0.20529813    -0.12400
C3793       C  0.58692552  0.06536325  0.21732752    -0.03400
C3794       C  0.59911627  0.05778870  0.23563654     0.02100
C3795       C  0.54778001  0.98040093  0.24122693     0.08900
N3796       N  0.52650813  0.99543650  0.20064754     0.65300
H3797       H  0.55390092  0.04908555  0.19115016     0.18200
N3798       N  0.62264251  0.07835197  0.24872313     0.75700
H3799       H  0.59570726  0.02423425  0.25700255     0.09700
C3800       C  0.55006697  0.95834811  0.23184442     0.03400
C3801       C  0.53453654  0.93164945  0.24184312    -0.05300
C3802       C  0.51623058  0.92629353  0.26097663    -0.23700
C3803       C  0.51435372  0.94870325  0.27052962     0.12600
C3804       C  0.53018586  0.97541265  0.26066560    -0.12900
N3805       N  0.56767750  0.96258612  0.21194643     0.64300
H3806       H  0.53614583  0.91483786  0.23398647     0.12100
N3807       N  0.49635326  0.94479788  0.29006674     0.60900
H3808       H  0.52838934  0.99235230  0.26799552     0.08300
O3809       O  0.64665927  0.08284963  0.24384357    -0.40500
O3810       O  0.61880746  0.08766516  0.26783514    -0.39700
O3811       O  0.50321779  0.99042435  0.20851611    -0.39700
O3812       O  0.52785197  0.98679819  0.18030724    -0.37400
O3813       O  0.50577674  0.94865225  0.31091516    -0.38300
O3814       O  0.47329629  0.94314006  0.28632106    -0.34500
O3815       O  0.59115225  0.96505397  0.21530017    -0.35900
O3816       O  0.55727250  0.95702182  0.19141857    -0.40200
loop_ 
_geom_bond_atom_site_label_1 
_geom_bond_atom_site_label_2 
_geom_bond_distance 
_geom_bond_site_symmetry_2 
_ccdc_geom_bond_type 
O1           C16   1.264       .  A
O1           Al9   1.915       .  S
C2           O12   1.259       .  A
C2            O3   1.260       .  A
C2         C3737   1.462       .  S
O3           Al5   1.899       .  S
O4            C6   1.261       .  A
O4           Al5   1.895       .  S
Al5          O13   1.879       .  S
Al5          O15   1.910       .  S
Al5          O14   1.768       .  S
C6           O19   1.264       .  A
C6         C3709   1.490       .  S
O7           C17   1.264       .  A
O7           Al9   1.901       .  S
O8           C21   1.260       .  A
O8          Al18   1.886       .  S
Al9          O22   1.914       .  S
Al9          O19   1.925       .  S
Al9          O14   1.784       .  S
O10          C17   1.269       .  A
O10         Al18   1.927       .  S
O11          C20   1.266       .  A
O11         Al18   1.942       .  S
O12         Al18   1.904       .  S
O13          C20   1.260       .  A
O14         Al18   1.784       .  S
O15          C16   1.262       .  A
C16        C3765   1.480       .  S
C17        C3793   1.491       .  S
C20        C3681   1.491       .  S
C21          O22   1.261       .  A
C21        C3662   1.483       .  S
O23          C38   1.258       .  A
O23         Al31   1.878       .  S
C24          O34   1.265       .  A
C24          O25   1.273       .  A
C24        C3718   1.483       .  S
O25         Al27   1.938       .  S
O26          C28   1.257       .  A
O26         Al27   1.887       .  S
Al27         O35   1.913       .  S
Al27         O37   1.917       .  S
Al27         O36   1.794       .  S
C28          O41   1.262       .  A
C28        C3625   1.490       .  S
O29          C39   1.256       .  A
O29         Al31   1.909       .  S
O30          C43   1.264       .  A
O30         Al40   1.872       .  S
Al31         O44   1.966       .  S
Al31         O41   1.930       .  S
Al31         O36   1.799       .  S
O32          C39   1.251       .  A
O32         Al40   1.886       .  S
O33          C42   1.250       .  A
O33         Al40   1.885       .  S
O34         Al40   1.884       .  S
O35          C42   1.255       .  A
O36         Al40   1.780       .  S
O37          C38   1.264       .  A
C38        C3513   1.482       .  S
C39        C3550   1.475       .  S
C42        C3569   1.479       .  S
C43          O44   1.274       .  A
C43        C3597   1.491       .  S
O45          C60   1.259       .  A
O45         Al53   1.872       .  S
C46          O56   1.269       .  A
C46          O47   1.277       .  A
C46        C3438   1.482       .  S
O47         Al49   1.950       .  S
O48          C50   1.256       .  A
O48         Al49   1.886       .  S
Al49         O57   1.923       .  S
Al49         O59   1.928       .  S
Al49         O58   1.787       .  S
C50          O63   1.261       .  A
C50        C3373   1.492       .  S
O51          C61   1.258       .  A
O51         Al53   1.921       .  S
O52          C65   1.266       .  A
O52         Al62   1.886       .  S
Al53         O66   1.955       .  S
Al53         O63   1.921       .  S
Al53         O58   1.785       .  S
O54          C61   1.254       .  A
O54         Al62   1.906       .  S
O55          C64   1.248       .  A
O55         Al62   1.884       .  S
O56         Al62   1.875       .  S
O57          C64   1.256       .  A
O58         Al62   1.777       .  S
O59          C60   1.267       .  A
C60        C3401   1.478       .  S
C61        C3457   1.474       .  S
C64        C3606   1.487       .  S
C65          O66   1.275       .  A
C65        C3485   1.472       .  S
O67          C82   1.270       .  A
O67         Al75   1.951       .  S
C68          O78   1.271       .  A
C68          O69   1.263       .  A
C68        C3466   1.470       .  S
O69         Al71   1.881       .  S
O70          C72   1.254       .  A
O70         Al71   1.891       .  S
Al71         O79   1.873       .  S
Al71         O81   1.877       .  S
Al71         O80   1.782       .  S
C72          O85   1.258       .  A
C72        C3317   1.483       .  S
O73          C83   1.259       .  A
O73         Al75   1.924       .  S
O74          C87   1.267       .  A
O74         Al84   1.920       .  S
Al75         O88   1.879       .  S
Al75         O85   1.905       .  S
Al75         O80   1.803       .  S
O76          C83   1.254       .  A
O76         Al84   1.866       .  S
O77          C86   1.254       .  A
O77         Al84   1.913       .  S
O78         Al84   1.940       .  S
O79          C86   1.249       .  A
O80         Al84   1.791       .  S
O81          C82   1.261       .  A
C82        C3690   1.476       .  S
C83        C3345   1.493       .  S
C86        C3289   1.474       .  S
C87          O88   1.259       .  A
C87        C3270   1.480       .  S
O89         C104   1.259       .  A
O89         Al97   1.873       .  S
C90         O100   1.262       .  A
C90          O91   1.269       .  A
C90        C3326   1.479       .  S
O91         Al93   1.944       .  S
O92          C94   1.252       .  A
O92         Al93   1.862       .  S
Al93        O101   1.902       .  S
Al93        O103   1.936       .  S
Al93        O102   1.791       .  S
C94         O107   1.263       .  A
C94        C3242   1.469       .  S
O95         C105   1.259       .  A
O95         Al97   1.913       .  S
O96         C109   1.262       .  A
O96        Al106   1.882       .  S
Al97        O110   1.956       .  S
Al97        O107   1.932       .  S
Al97        O102   1.791       .  S
O98         C105   1.260       .  A
O98        Al106   1.900       .  S
O99         C108   1.259       .  A
O99        Al106   1.895       .  S
O100       Al106   1.873       .  S
O101        C108   1.257       .  A
O102       Al106   1.766       .  S
O103        C104   1.267       .  A
C104       C3214   1.488       .  S
C105       C3746   1.486       .  S
C108       C3494   1.479       .  S
C109        O110   1.270       .  A
C109       C3578   1.475       .  S
O111        C126   1.262       .  A
O111       Al119   1.907       .  S
C112        O122   1.263       .  A
C112        O113   1.266       .  A
C112       C3541   1.469       .  S
O113       Al115   1.914       .  S
O114        C116   1.258       .  A
O114       Al115   1.892       .  S
Al115       O123   1.894       .  S
Al115       O125   1.912       .  S
Al115       O124   1.764       .  S
C116        O129   1.263       .  A
C116       C3429   1.481       .  S
O117        C127   1.261       .  A
O117       Al119   1.897       .  S
O118        C131   1.264       .  A
O118       Al128   1.885       .  S
Al119       O132   1.915       .  S
Al119       O129   1.916       .  S
Al119       O124   1.779       .  S
O120        C127   1.262       .  A
O120       Al128   1.913       .  S
O121        C130   1.263       .  A
O121       Al128   1.931       .  S
O122       Al128   1.908       .  S
O123        C130   1.260       .  A
O124       Al128   1.780       .  S
O125        C126   1.265       .  A
C126       C3298   1.476       .  S
C127       C3186   1.467       .  S
C130       C3774   1.490       .  S
C131        O132   1.264       .  A
C131       C3149   1.478       .  S
O133        C148   1.269       .  A
O133       Al141   1.945       .  S
C134        O144   1.271       .  A
C134        O135   1.262       .  A
C134       C3009   1.473       .  S
O135       Al137   1.878       .  S
O136        C138   1.258       .  A
O136       Al137   1.908       .  S
Al137       O145   1.896       .  S
Al137       O147   1.888       .  S
Al137       O146   1.778       .  S
C138        O151   1.254       .  A
C138       C3037   1.474       .  S
O139        C149   1.261       .  A
O139       Al141   1.914       .  S
O140        C153   1.267       .  A
O140       Al150   1.928       .  S
Al141       O154   1.868       .  S
Al141       O151   1.890       .  S
Al141       O146   1.795       .  S
O142        C149   1.259       .  A
O142       Al150   1.886       .  S
O143        C152   1.258       .  A
O143       Al150   1.920       .  S
O144       Al150   1.949       .  S
O145        C152   1.257       .  A
O146       Al150   1.794       .  S
O147        C148   1.262       .  A
C148       C3093   1.473       .  S
C149       C3121   1.481       .  S
C152       C3065   1.483       .  S
C153        O154   1.256       .  A
C153       C3261   1.481   1_556  S
O155        C170   1.256       .  A
O155       Al163   1.873       .  S
C156        O166   1.264       .  A
C156        O157   1.266       .  A
C156       C3046   1.479       .  S
O157       Al159   1.926       .  S
O158        C160   1.259       .  A
O158       Al159   1.878       .  S
Al159       O167   1.915       .  S
Al159       O169   1.923       .  S
Al159       O168   1.798       .  S
C160        O173   1.271       .  A
C160       C2981   1.505       .  S
O161        C171   1.252       .  A
O161       Al163   1.894       .  S
O162        C175   1.260       .  A
O162       Al172   1.884       .  S
Al163       O176   1.978       .  S
Al163       O173   1.960       .  S
Al163       O168   1.794       .  S
O164        C171   1.260       .  A
O164       Al172   1.922       .  S
O165        C174   1.261       .  A
O165       Al172   1.910       .  S
O166       Al172   1.893       .  S
O167        C174   1.262       .  A
O168       Al172   1.779       .  S
O169        C170   1.261       .  A
C170       C3410   1.485       .  S
C171       C2934   1.474       .  S
C174       C2897   1.486       .  S
C175        O176   1.276       .  A
C175       C2953   1.492       .  S
O177        C192   1.259       .  A
O177       Al185   1.880       .  S
C178        O188   1.261       .  A
C178        O179   1.271       .  A
C178       C2841   1.475       .  S
O179       Al181   1.948       .  S
O180        C182   1.255       .  A
O180       Al181   1.869       .  S
Al181       O189   1.906       .  S
Al181       O191   1.926       .  S
Al181       O190   1.789       .  S
C182        O195   1.267       .  A
C182       C2869   1.485       .  S
O183        C193   1.261       .  A
O183       Al185   1.920       .  S
O184        C197   1.260       .  A
O184       Al194   1.881       .  S
Al185       O198   1.957       .  S
Al185       O195   1.936       .  S
Al185       O190   1.785       .  S
O186        C193   1.257       .  A
O186       Al194   1.891       .  S
O187        C196   1.256       .  A
O187       Al194   1.886       .  S
O188       Al194   1.878       .  S
O189        C196   1.257       .  A
O190       Al194   1.770       .  S
O191        C192   1.265       .  A
C192       C3205   1.479       .  S
C193       C3018   1.481       .  S
C196       C2813   1.471       .  S
C197        O198   1.272       .  A
C197       C2906   1.472       .  S
O199        C214   1.261       .  A
O199       Al207   1.907       .  S
C200        O210   1.263       .  A
C200        O201   1.267       .  A
C200       C2757   1.477       .  S
O201       Al203   1.923       .  S
O202        C204   1.260       .  A
O202       Al203   1.884       .  S
Al203       O211   1.904       .  S
Al203       O213   1.924       .  S
Al203       O212   1.768       .  S
C204        O217   1.263       .  A
C204       C2850   1.487       .  S
O205        C215   1.260       .  A
O205       Al207   1.905       .  S
O206        C219   1.263       .  A
O206       Al216   1.884       .  S
Al207       O220   1.924       .  S
Al207       O217   1.922       .  S
Al207       O212   1.785       .  S
O208        C215   1.264       .  A
O208       Al216   1.916       .  S
O209        C218   1.264       .  A
O209       Al216   1.933       .  S
O210       Al216   1.907       .  S
O211        C218   1.263       .  A
O212       Al216   1.781       .  S
O213        C214   1.265       .  A
C214       C3074   1.479       .  S
C215       C2794   1.485       .  S
C218       C2729   1.494       .  S
C219        O220   1.266       .  A
C219       C3653   1.482   1_556  S
O221        C236   1.256       .  A
O221       Al229   1.880       .  S
C222        O232   1.272       .  A
C222        O223   1.278       .  A
C222       C2682   1.479       .  S
O223       Al225   1.938       .  S
O224        C226   1.257       .  A
O224       Al225   1.872       .  S
Al225       O233   1.926       .  S
Al225       O235   1.916       .  S
Al225       O234   1.778       .  S
C226        O239   1.260       .  A
C226       C2701   1.479       .  S
O227        C237   1.252       .  A
O227       Al229   1.914       .  S
O228        C241   1.267       .  A
O228       Al238   1.872       .  S
Al229       O242   1.946       .  S
Al229       O239   1.909       .  S
Al229       O234   1.787       .  S
O230        C237   1.250       .  A
O230       Al238   1.898       .  S
O231        C240   1.250       .  A
O231       Al238   1.897       .  S
O232       Al238   1.893       .  S
O233        C240   1.258       .  A
O234       Al238   1.778       .  S
O235        C236   1.263       .  A
C236       C3522   1.489       .  S
C237       C2766   1.473       .  S
C240       C2962   1.496       .  S
C241        O242   1.276       .  A
C241       C2822   1.459       .  S
O243        C258   1.268       .  A
O243       Al251   1.932       .  S
C244        O254   1.263       .  A
C244        O245   1.258       .  A
C244       C2925   1.473       .  S
O245       Al247   1.883       .  S
O246        C248   1.261       .  A
O246       Al247   1.895       .  S
Al247       O255   1.897       .  S
Al247       O257   1.891       .  S
Al247       O256   1.771       .  S
C248        O261   1.260       .  A
C248       C2673   1.486       .  S
O249        C259   1.266       .  A
O249       Al251   1.909       .  S
O250        C263   1.261       .  A
O250       Al260   1.895       .  S
Al251       O264   1.905       .  S
Al251       O261   1.912       .  S
Al251       O256   1.783       .  S
O252        C259   1.265       .  A
O252       Al260   1.924       .  S
O253        C262   1.265       .  A
O253       Al260   1.920       .  S
O254       Al260   1.914       .  S
O255        C262   1.260       .  A
O256       Al260   1.783       .  S
O257        C258   1.260       .  A
C258       C2738   1.484       .  S
C259       C2654   1.484       .  S
C262       C3102   1.489       .  S
C263        O264   1.260       .  A
C263       C3158   1.482   1_556  S
O265        C280   1.263       .  A
O265       Al273   1.910       .  S
C266        O276   1.259       .  A
C266        O267   1.260       .  A
C266       C2570   1.462       .  S
O267       Al269   1.896       .  S
O268        C270   1.261       .  A
O268       Al269   1.910       .  S
Al269       O277   1.888       .  S
Al269       O279   1.900       .  S
Al269       O278   1.769       .  S
C270        O283   1.263       .  A
C270       C2533   1.496       .  S
O271        C281   1.262       .  A
O271       Al273   1.882       .  S
O272        C285   1.260       .  A
O272       Al282   1.903       .  S
Al273       O286   1.911       .  S
Al273       O283   1.927       .  S
Al273       O278   1.783       .  S
O274        C281   1.268       .  A
O274       Al282   1.933       .  S
O275        C284   1.264       .  A
O275       Al282   1.931       .  S
O276       Al282   1.902       .  S
O277        C284   1.260       .  A
O278       Al282   1.792       .  S
O279        C280   1.265       .  A
C280       C2598   1.476       .  S
C281       C2626   1.483       .  S
C284       C2505   1.493       .  S
C285        O286   1.263       .  A
C285       C2477   1.487       .  S
O287        C302   1.256       .  A
O287       Al295   1.869       .  S
C288        O298   1.261       .  A
C288        O289   1.269       .  A
C288       C2393   1.476       .  S
O289       Al291   1.946       .  S
O290        C292   1.256       .  A
O290       Al291   1.857       .  S
Al291       O299   1.893       .  S
Al291       O301   1.930       .  S
Al291       O300   1.790       .  S
C292        O305   1.266       .  A
C292       C2710   1.477       .  S
O293        C303   1.255       .  A
O293       Al295   1.891       .  S
O294        C307   1.259       .  A
O294       Al304   1.869       .  S
Al295       O308   1.948       .  S
Al295       O305   1.932       .  S
Al295       O300   1.790       .  S
O296        C303   1.259       .  A
O296       Al304   1.902       .  S
O297        C306   1.260       .  A
O297       Al304   1.902       .  S
O298       Al304   1.885       .  S
O299        C306   1.256       .  A
O300       Al304   1.771       .  S
O301        C302   1.264       .  A
C302       C2365   1.490       .  S
C303       C2561   1.473       .  S
C306       C2421   1.468       .  S
C307        O308   1.269       .  A
C307       C2449   1.473       .  S
O309        C324   1.259       .  A
O309       Al317   1.878       .  S
C310        O320   1.267       .  A
C310        O311   1.274       .  A
C310       C2281   1.476       .  S
O311       Al313   1.940       .  S
O312        C314   1.257       .  A
O312       Al313   1.896       .  S
Al313       O321   1.911       .  S
Al313       O323   1.917       .  S
Al313       O322   1.792       .  S
C314        O327   1.257       .  A
C314       C2878   1.485       .  S
O315        C325   1.258       .  A
O315       Al317   1.919       .  S
O316        C329   1.262       .  A
O316       Al326   1.877       .  S
Al317       O330   1.936       .  S
Al317       O327   1.899       .  S
Al317       O322   1.792       .  S
O318        C325   1.255       .  A
O318       Al326   1.908       .  S
O319        C328   1.249       .  A
O319       Al326   1.886       .  S
O320       Al326   1.878       .  S
O321        C328   1.254       .  A
O322       Al326   1.781       .  S
O323        C324   1.264       .  A
C324       C2262   1.481       .  S
C325       C2337   1.489       .  S
C328       C2309   1.478       .  S
C329        O330   1.269       .  A
C329       C2430   1.461       .  S
O331        C346   1.261       .  A
O331       Al339   1.918       .  S
C332        O342   1.267       .  A
C332        O333   1.262       .  A
C332       C2346   1.477       .  S
O333       Al335   1.913       .  S
O334        C336   1.260       .  A
O334       Al335   1.878       .  S
Al335       O343   1.899       .  S
Al335       O345   1.904       .  S
Al335       O344   1.773       .  S
C336        O349   1.268       .  A
C336       C2402   1.488       .  S
O337        C347   1.264       .  A
O337       Al339   1.922       .  S
O338        C351   1.265       .  A
O338       Al348   1.905       .  S
Al339       O352   1.936       .  S
Al339       O349   1.940       .  S
Al339       O344   1.781       .  S
O340        C347   1.264       .  A
O340       Al348   1.915       .  S
O341        C350   1.264       .  A
O341       Al348   1.924       .  S
O342       Al348   1.929       .  S
O343        C350   1.260       .  A
O344       Al348   1.776       .  S
O345        C346   1.258       .  A
C346       C2514   1.471       .  S
C347       C2225   1.492       .  S
C350       C2197   1.477       .  S
C351        O352   1.268       .  A
C351       C2169   1.498       .  S
O353        C368   1.264       .  A
O353       Al361   1.916       .  S
C354        O364   1.261       .  A
C354        O355   1.267       .  A
C354       C2542   1.480       .  S
O355       Al357   1.931       .  S
O356        C358   1.265       .  A
O356       Al357   1.931       .  S
Al357       O365   1.917       .  S
Al357       O367   1.911       .  S
Al357       O366   1.786       .  S
C358        O371   1.262       .  A
C358       C2990   1.481       .  S
O359        C369   1.262       .  A
O359       Al361   1.920       .  S
O360        C373   1.261       .  A
O360       Al370   1.912       .  S
Al361       O374   1.914       .  S
Al361       O371   1.905       .  S
Al361       O366   1.785       .  S
O362        C369   1.259       .  A
O362       Al370   1.883       .  S
O363        C372   1.261       .  A
O363       Al370   1.897       .  S
O364       Al370   1.896       .  S
O365        C372   1.264       .  A
O366       Al370   1.773       .  S
O367        C368   1.263       .  A
C368       C2122   1.494       .  S
C369       C2141   1.484       .  S
C372       C2458   1.490       .  S
C373        O374   1.263       .  A
C373       C2318   1.479       .  S
O375        C390   1.263       .  A
O375       Al383   1.909       .  S
C376        O386   1.260       .  A
C376        O377   1.261       .  A
C376       C2150   1.463       .  S
O377       Al379   1.899       .  S
O378        C380   1.260       .  A
O378       Al379   1.895       .  S
Al379       O387   1.883       .  S
Al379       O389   1.909       .  S
Al379       O388   1.767       .  S
C380        O393   1.263       .  A
C380       C2290   1.493       .  S
O381        C391   1.262       .  A
O381       Al383   1.896       .  S
O382        C395   1.260       .  A
O382       Al392   1.895       .  S
Al383       O396   1.918       .  S
Al383       O393   1.930       .  S
Al383       O388   1.783       .  S
O384        C391   1.268       .  A
O384       Al392   1.926       .  S
O385        C394   1.264       .  A
O385       Al392   1.928       .  S
O386       Al392   1.905       .  S
O387        C394   1.258       .  A
O388       Al392   1.787       .  S
O389        C390   1.264       .  A
C390       C2206   1.488       .  S
C391       C2094   1.484       .  S
C394       C2589   1.481       .  S
C395        O396   1.264       .  A
C395       C2057   1.488       .  S
O397        C412   1.258   1_554  A
O397       Al405   1.883       .  S
C398        O408   1.265       .  A
C398        O399   1.275       .  A
C398       C1982   1.485       .  S
O399       Al401   1.956       .  S
O400        C402   1.257       .  A
O400       Al401   1.884       .  S
Al401       O409   1.919       .  S
Al401       O411   1.924       .  S
Al401       O410   1.792       .  S
C402        O415   1.262       .  A
C402       C1917   1.487       .  S
O403        C413   1.258       .  A
O403       Al405   1.917       .  S
O404        C417   1.264       .  A
O404       Al414   1.887       .  S
Al405       O418   1.949       .  S
Al405       O415   1.923       .  S
Al405       O410   1.793       .  S
O406        C413   1.252       .  A
O406       Al414   1.889       .  S
O407        C416   1.250       .  A
O407       Al414   1.873       .  S
O408       Al414   1.878       .  S
O409        C416   1.255       .  A
O410       Al414   1.779       .  S
O411        C412   1.267   1_554  A
C412       C2253   1.493       .  S
C413       C2010   1.484       .  S
C416       C1945   1.479       .  S
C417        O418   1.274       .  A
C417       C2029   1.486       .  S
O419        C434   1.261       .  A
O419       Al427   1.900       .  S
C420        O430   1.261       .  A
C420        O421   1.265       .  A
C420       C2001   1.468       .  S
O421       Al423   1.918       .  S
O422        C424   1.258       .  A
O422       Al423   1.881       .  S
Al423       O431   1.895       .  S
Al423       O433   1.919       .  S
Al423       O432   1.771       .  S
C424        O437   1.265       .  A
C424       C1870   1.492       .  S
O425        C435   1.262       .  A
O425       Al427   1.895       .  S
O426        C439   1.259       .  A
O426       Al436   1.895       .  S
Al427       O440   1.931       .  S
Al427       O437   1.938       .  S
Al427       O432   1.780       .  S
O428        C435   1.264       .  A
O428       Al436   1.919       .  S
O429        C438   1.260       .  A
O429       Al436   1.904       .  S
O430       Al436   1.902       .  S
O431        C438   1.260       .  A
O432       Al436   1.782       .  S
O433        C434   1.264       .  A
C434       C1889   1.469       .  S
C435       C3802   1.485       .  S
C438       C1842   1.481       .  S
C439        O440   1.267       .  A
C439       C2066   1.477       .  S
O441        C456   1.262       .  A
O441       Al449   1.911       .  S
C442        O452   1.265       .  A
C442        O443   1.259       .  A
C442       C1805   1.476       .  S
O443       Al445   1.904       .  S
O444        C446   1.260       .  A
O444       Al445   1.894       .  S
Al445       O453   1.876       .  S
Al445       O455   1.900       .  S
Al445       O454   1.771       .  S
C446        O459   1.267       .  A
C446       C1973   1.488       .  S
O447        C457   1.261       .  A
O447       Al449   1.885       .  S
O448        C461   1.264       .  A
O448       Al458   1.915       .  S
Al449       O462   1.922       .  S
Al449       O459   1.928       .  S
Al449       O454   1.780       .  S
O450        C457   1.268       .  A
O450       Al458   1.922       .  S
O451        C460   1.266       .  A
O451       Al458   1.925       .  S
O452       Al458   1.925       .  S
O453        C460   1.257       .  A
O454       Al458   1.774       .  S
O455        C456   1.262       .  A
C456       C1833   1.468       .  S
C457       C3177   1.484       .  S
C460       C1777   1.479       .  S
C461        O462   1.262       .  A
C461       C2178   1.484       .  S
O463        C478   1.257   1_554  A
O463       Al471   1.892       .  S
C464        O474   1.268       .  A
C464        O465   1.273       .  A
C464       C1693   1.484       .  S
O465       Al467   1.945       .  S
O466        C468   1.256       .  A
O466       Al467   1.872       .  S
Al467       O475   1.922       .  S
Al467       O477   1.911       .  S
Al467       O476   1.787       .  S
C468        O481   1.265       .  A
C468       C1749   1.482       .  S
O469        C479   1.255       .  A
O469       Al471   1.927       .  S
O470        C483   1.263       .  A
O470       Al480   1.872       .  S
Al471       O484   1.970       .  S
Al471       O481   1.930       .  S
Al471       O476   1.791       .  S
O472        C479   1.253       .  A
O472       Al480   1.900       .  S
O473        C482   1.254       .  A
O473       Al480   1.883       .  S
O474       Al480   1.887       .  S
O475        C482   1.257       .  A
O476       Al480   1.775       .  S
O477        C478   1.261   1_554  A
C478       C2374   1.476       .  S
C479       C1814   1.482       .  S
C482       C1721   1.482       .  S
C483        O484   1.278       .  A
C483       C1954   1.477       .  S
O485        C500   1.256   1_554  A
O485       Al493   1.877       .  S
C486        O496   1.264       .  A
C486        O487   1.278       .  A
C486       C1861   1.481       .  S
O487       Al489   1.963       .  S
O488        C490   1.258       .  A
O488       Al489   1.881       .  S
Al489       O497   1.923       .  S
Al489       O499   1.926   1_554  S
Al489       O498   1.784       .  S
C490        O503   1.263       .  A
C490       C1674   1.483       .  S
O491        C501   1.255       .  A
O491       Al493   1.918       .  S
O492        C505   1.264       .  A
O492       Al502   1.874       .  S
Al493       O506   1.947       .  S
Al493       O503   1.917       .  S
Al493       O498   1.786       .  S
O494        C501   1.253       .  A
O494       Al502   1.891       .  S
O495        C504   1.254       .  A
O495       Al502   1.898       .  S
O496       Al502   1.876       .  S
O497        C504   1.257       .  A
O498       Al502   1.776       .  S
O499        C500   1.265       .  A
C500       C2113   1.485       .  S
C501       C1637   1.483       .  S
C504       C2038   1.482       .  S
C505        O506   1.277       .  A
C505       C1730   1.484       .  S
O507        C522   1.264       .  A
O507       Al515   1.924       .  S
C508        O518   1.272       .  A
C508        O509   1.264       .  A
C508       C1646   1.481       .  S
O509       Al511   1.875       .  S
O510        C512   1.256       .  A
O510       Al511   1.898       .  S
Al511       O519   1.883       .  S
Al511       O521   1.890       .  S
Al511       O520   1.779       .  S
C512        O525   1.259       .  A
C512       C1702   1.477       .  S
O513        C523   1.258       .  A
O513       Al515   1.907       .  S
O514        C527   1.264       .  A
O514       Al524   1.915       .  S
Al515       O528   1.876       .  S
Al515       O525   1.911       .  S
Al515       O520   1.799       .  S
O516        C523   1.256       .  A
O516       Al524   1.881       .  S
O517        C526   1.251       .  A
O517       Al524   1.898       .  S
O518       Al524   1.951       .  S
O519        C526   1.252       .  A
O520       Al524   1.800       .  S
O521        C522   1.262       .  A
C522       C1786   1.465       .  S
C523       C3354   1.474       .  S
C526       C1898   1.473       .  S
C527        O528   1.258       .  A
C527       C2486   1.479       .  S
O529        C544   1.266       .  A
O529       Al537   1.923       .  S
C530        O540   1.262       .  A
C530        O531   1.265       .  A
C530       C1525   1.470       .  S
O531       Al533   1.920       .  S
O532        C534   1.268       .  A
O532       Al533   1.931       .  S
Al533       O541   1.936       .  S
Al533       O543   1.907       .  S
Al533       O542   1.781       .  S
C534        O547   1.263       .  A
C534       C3634   1.492       .  S
O535        C545   1.265       .  A
O535       Al537   1.934       .  S
O536        C549   1.261       .  A
O536       Al546   1.908       .  S
Al537       O550   1.914       .  S
Al537       O547   1.910       .  S
Al537       O542   1.782       .  S
O538        C545   1.261       .  A
O538       Al546   1.889       .  S
O539        C548   1.261       .  A
O539       Al546   1.893       .  S
O540       Al546   1.903       .  S
O541        C548   1.265       .  A
O542       Al546   1.767       .  S
O543        C544   1.263       .  A
C544       C1506   1.489       .  S
C545       C1562   1.492       .  S
C548       C1581   1.491       .  S
C549        O550   1.261       .  A
C549       C1618   1.470   1_655  S
O551        C566   1.265       .  A
O551       Al559   1.924       .  S
C552        O562   1.261       .  A
C552        O553   1.260       .  A
C552       C1553   1.472       .  S
O553       Al555   1.904       .  S
O554        C556   1.259       .  A
O554       Al555   1.898       .  S
Al555       O563   1.875       .  S
Al555       O565   1.911       .  S
Al555       O564   1.766       .  S
C556        O569   1.266       .  A
C556       C1413   1.487       .  S
O557        C567   1.266       .  A
O557       Al559   1.902       .  S
O558        C571   1.260       .  A
O558       Al568   1.901       .  S
Al559       O572   1.919       .  S
Al559       O569   1.948       .  S
Al559       O564   1.785       .  S
O560        C567   1.267       .  A
O560       Al568   1.916       .  S
O561        C570   1.262       .  A
O561       Al568   1.925       .  S
O562       Al568   1.914       .  S
O563        C570   1.259       .  A
O564       Al568   1.788       .  S
O565        C566   1.266       .  A
C566       C1469   1.487       .  S
C567       C2617   1.479       .  S
C570       C1441   1.477       .  S
C571        O572   1.264       .  A
C571       C1385   1.491       .  S
O573        C588   1.260       .  A
O573       Al581   1.886       .  S
C574        O584   1.260       .  A
C574        O575   1.270       .  A
C574       C1422   1.468       .  S
O575       Al577   1.939       .  S
O576        C578   1.255       .  A
O576       Al577   1.870       .  S
Al577       O585   1.919       .  S
Al577       O587   1.919       .  S
Al577       O586   1.795       .  S
C578        O591   1.259       .  A
C578       C3233   1.489       .  S
O579        C589   1.256       .  A
O579       Al581   1.906   1_565  S
O580        C593   1.259       .  A
O580       Al590   1.870   1_565  S
Al581       O594   1.959   1_545  S
Al581       O591   1.916       .  S
Al581       O586   1.803       .  S
O582        C589   1.254       .  A
O582       Al590   1.891   1_565  S
O583        C592   1.251       .  A
O583       Al590   1.871       .  S
O584       Al590   1.865       .  S
O585        C592   1.257       .  A
O586       Al590   1.780       .  S
O587        C588   1.266       .  A
C588       C1310   1.474       .  S
C589       C1338   1.472       .  S
C592       C1609   1.479       .  S
C593        O594   1.271       .  A
C593       C1357   1.478       .  S
O595        C610   1.267       .  A
O595       Al603   1.933   1_545  S
C596        O606   1.270       .  A
C596        O597   1.265       .  A
C596       C1254   1.474       .  S
O597       Al599   1.885       .  S
O598        C600   1.257   1_565  A
O598       Al599   1.902       .  S
Al599       O607   1.895       .  S
Al599       O609   1.872       .  S
Al599       O608   1.776       .  S
C600        O613   1.255       .  A
C600       C1534   1.479       .  S
O601        C611   1.259       .  A
O601       Al603   1.896       .  S
O602        C615   1.263       .  A
O602       Al612   1.916       .  S
Al603       O616   1.870       .  S
Al603       O613   1.905   1_565  S
Al603       O608   1.794       .  S
O604        C611   1.257       .  A
O604       Al612   1.883       .  S
O605        C614   1.256       .  A
O605       Al612   1.907       .  S
O606       Al612   1.940       .  S
O607        C614   1.255       .  A
O608       Al612   1.793       .  S
O609        C610   1.262   1_565  A
C610       C1450   1.467       .  S
C611       C2085   1.471       .  S
C614       C1273   1.471       .  S
C615        O616   1.256       .  A
C615       C1217   1.473       .  S
O617        C632   1.257       .  A
O617       Al625   1.883       .  S
C618        O628   1.263       .  A
C618        O619   1.271       .  A
C618       C1189   1.474       .  S
O619       Al621   1.946       .  S
O620        C622   1.259       .  A
O620       Al621   1.894       .  S
Al621       O629   1.921       .  S
Al621       O631   1.913       .  S
Al621       O630   1.789       .  S
C622        O635   1.264       .  A
C622       C3382   1.496       .  S
O623        C633   1.256       .  A
O623       Al625   1.913       .  S
O624        C637   1.261       .  A
O624       Al634   1.882       .  S
Al625       O638   1.955       .  S
Al625       O635   1.923       .  S
Al625       O630   1.795       .  S
O626        C633   1.255       .  A
O626       Al634   1.889       .  S
O627        C636   1.252       .  A
O627       Al634   1.888       .  S
O628       Al634   1.878       .  S
O629        C636   1.259       .  A
O630       Al634   1.777       .  S
O631        C632   1.264       .  A
C632       C1170   1.482       .  S
C633       C1245   1.481       .  S
C636       C1366   1.482       .  S
C637        O638   1.272       .  A
C637       C1590   1.472       .  S
O639        C654   1.269       .  A
O639       Al647   1.941       .  S
C640        O650   1.271       .  A
C640        O641   1.265       .  A
C640       C1329   1.480       .  S
O641       Al643   1.878   1_455  S
O642        C644   1.257       .  A
O642       Al643   1.907       .  S
Al643       O651   1.891   1_655  S
Al643       O653   1.889       .  S
Al643       O652   1.780       .  S
C644        O657   1.258       .  A
C644       C1198   1.482       .  S
O645        C655   1.262   1_655  A
O645       Al647   1.923       .  S
O646        C659   1.267   1_455  A
O646       Al656   1.930       .  S
Al647       O660   1.874       .  S
Al647       O657   1.905       .  S
Al647       O652   1.794       .  S
O648        C655   1.254       .  A
O648       Al656   1.883       .  S
O649        C658   1.256       .  A
O649       Al656   1.909       .  S
O650       Al656   1.943       .  S
O651        C658   1.253       .  A
O652       Al656   1.794   1_655  S
O653        C654   1.263       .  A
C654       C1282   1.468       .  S
C655       C2234   1.493       .  S
C658       C1478   1.478       .  S
C659        O660   1.256       .  A
C659       C1133   1.490       .  S
O661        C676   1.262       .  A
O661       Al669   1.914       .  S
C662        O672   1.263       .  A
C662        O663   1.262       .  A
C662       C1021   1.471       .  S
O663       Al665   1.905       .  S
O664        C666   1.259       .  A
O664       Al665   1.896       .  S
Al665       O673   1.892       .  S
Al665       O675   1.902       .  S
Al665       O674   1.772       .  S
C666        O679   1.265       .  A
C666       C1077   1.489       .  S
O667        C677   1.262       .  A
O667       Al669   1.906       .  S
O668        C681   1.268       .  A
O668       Al678   1.914       .  S
Al669       O682   1.915       .  S
Al669       O679   1.919       .  S
Al669       O674   1.783       .  S
O670        C677   1.266       .  A
O670       Al678   1.922       .  S
O671        C680   1.267       .  A
O671       Al678   1.950       .  S
O672       Al678   1.918       .  S
O673        C680   1.260       .  A
O674       Al678   1.780       .  S
O675        C676   1.263       .  A
C676       C1105   1.485   1_655  S
C677       C2645   1.493       .  S
C680       C1049   1.495       .  S
C681        O682   1.264       .  A
C681       C1142   1.492       .  S
O683        C698   1.258       .  A
O683       Al691   1.869   1_565  S
C684        O694   1.267       .  A
C684        O685   1.277       .  A
C684       C1086   1.489       .  S
O685       Al687   1.962       .  S
O686        C688   1.256       .  A
O686       Al687   1.871       .  S
Al687       O695   1.915       .  S
Al687       O697   1.934       .  S
Al687       O696   1.789       .  S
C688        O701   1.264       .  A
C688       C1926   1.494       .  S
O689        C699   1.255       .  A
O689       Al691   1.904       .  S
O690        C703   1.265       .  A
O690       Al700   1.881   1_545  S
Al691       O704   1.970       .  S
Al691       O701   1.936   1_545  S
Al691       O696   1.788   1_545  S
O692        C699   1.252       .  A
O692       Al700   1.897   1_545  S
O693        C702   1.249       .  A
O693       Al700   1.881       .  S
O694       Al700   1.872       .  S
O695        C702   1.255       .  A
O696       Al700   1.776       .  S
O697        C698   1.266       .  A
C698       C1301   1.494       .  S
C699        C965   1.482       .  S
C702        C937   1.477       .  S
C703        O704   1.277       .  A
C703        C993   1.479       .  S
O705        C720   1.263       .  A
O705       Al713   1.916       .  S
C706        O716   1.262       .  A
C706        O707   1.264       .  A
C706        C974   1.466       .  S
O707       Al709   1.913       .  S
O708        C710   1.262       .  A
O708       Al709   1.897       .  S
Al709       O717   1.896       .  S
Al709       O719   1.899       .  S
Al709       O718   1.772       .  S
C710        O723   1.265       .  A
C710        C890   1.493       .  S
O711        C721   1.263       .  A
O711       Al713   1.909       .  S
O712        C725   1.263       .  A
O712       Al722   1.898       .  S
Al713       O726   1.920       .  S
Al713       O723   1.926       .  S
Al713       O718   1.774       .  S
O714        C721   1.261       .  A
O714       Al722   1.912       .  S
O715        C724   1.263       .  A
O715       Al722   1.923       .  S
O716       Al722   1.908       .  S
O717        C724   1.258       .  A
O718       Al722   1.784       .  S
O719        C720   1.260       .  A
C720        C918   1.476       .  S
C721       C3130   1.485       .  S
C724       C1114   1.475       .  S
C725        O726   1.267       .  A
C725       C1394   1.488       .  S
O727        C742   1.265       .  A
O727       Al735   1.924   1_565  S
C728        O738   1.262       .  A
C728        O729   1.263       .  A
C728        C862   1.474       .  S
O729       Al731   1.907       .  S
O730        C732   1.261   1_545  A
O730       Al731   1.886       .  S
Al731       O739   1.887       .  S
Al731       O741   1.904   1_545  S
Al731       O740   1.770       .  S
C732        O745   1.267       .  A
C732        C825   1.491       .  S
O733        C743   1.266       .  A
O733       Al735   1.911       .  S
O734        C747   1.262       .  A
O734       Al744   1.890       .  S
Al735       O748   1.932       .  S
Al735       O745   1.940   1_545  S
Al735       O740   1.778       .  S
O736        C743   1.263       .  A
O736       Al744   1.912       .  S
O737        C746   1.265       .  A
O737       Al744   1.926       .  S
O738       Al744   1.913       .  S
O739        C746   1.258       .  A
O740       Al744   1.780       .  S
O741        C742   1.260       .  A
C742       C1058   1.475       .  S
C743       C2785   1.491       .  S
C746        C909   1.478       .  S
C747        O748   1.266       .  A
C747       C1226   1.484       .  S
O749        C764   1.255       .  A
O749       Al757   1.866       .  S
C750        O760   1.266       .  A
C750        O751   1.274       .  A
C750        C881   1.489       .  S
O751       Al753   1.941       .  S
O752        C754   1.257       .  A
O752       Al753   1.880       .  S
Al753       O761   1.916       .  S
Al753       O763   1.935       .  S
Al753       O762   1.781   1_455  S
C754        O767   1.261   1_455  A
C754       C1758   1.493       .  S
O755        C765   1.256       .  A
O755       Al757   1.894       .  S
O756        C769   1.262       .  A
O756       Al766   1.878       .  S
Al757       O770   1.941       .  S
Al757       O767   1.924       .  S
Al757       O762   1.792       .  S
O758        C765   1.258       .  A
O758       Al766   1.918       .  S
O759        C768   1.254       .  A
O759       Al766   1.901   1_455  S
O760       Al766   1.890   1_455  S
O761        C768   1.258       .  A
O762       Al766   1.780       .  S
O763        C764   1.268   1_455  A
C764       C1497   1.491       .  S
C765        C853   1.478       .  S
C768       C1002   1.488       .  S
C769        O770   1.269       .  A
C769        C797   1.463       .  S
O771        C786   1.258       .  A
O771       Al779   1.869       .  S
C772        O782   1.262       .  A
C772        O773   1.274       .  A
C772        C834   1.482       .  S
O773       Al775   1.942       .  S
O774        C776   1.251       .  A
O774       Al775   1.860       .  S
Al775       O783   1.883       .  S
Al775       O785   1.923       .  S
Al775       O784   1.786       .  S
C776        O789   1.264       .  A
C776       C1665   1.485       .  S
O777        C787   1.260       .  A
O777       Al779   1.911       .  S
O778        C791   1.262       .  A
O778       Al788   1.872       .  S
Al779       O792   1.962       .  S
Al779       O789   1.937       .  S
Al779       O784   1.788       .  S
O780        C787   1.257       .  A
O780       Al788   1.907       .  S
O781        C790   1.254       .  A
O781       Al788   1.896       .  S
O782       Al788   1.875       .  S
O783        C790   1.249       .  A
O784       Al788   1.777       .  S
O785        C786   1.266       .  A
C786       C1161   1.479       .  S
C787       C1030   1.484       .  S
C790        C806   1.468       .  S
C791        O792   1.273       .  A
C791        C946   1.485       .  S
C793        C794   1.403       .  A
C793        C798   1.397       .  A
C793        H803   1.084       .  S
C794        C799   1.477   1_545  S
C794        C795   1.412       .  A
C795        C796   1.398       .  A
C795        N800   1.430       .  S
C796        C797   1.398       .  A
C796        H801   1.083       .  S
C797        C798   1.407       .  A
C798        N802   1.429       .  S
C799        C804   1.411       .  A
C799        C808   1.403       .  A
N800        O815   1.262       .  A
N800        O816   1.262       .  A
N802        O813   1.261       .  A
N802        O814   1.262       .  A
C804        C805   1.392       .  A
C804        N809   1.429       .  S
C805        C806   1.398       .  A
C805        H810   1.085       .  S
C806        C807   1.412       .  A
C807        C808   1.401       .  A
C807        N811   1.429       .  S
C808        H812   1.084       .  S
N809        O819   1.262       .  A
N809        O820   1.262   1_565  A
N811        O817   1.262       .  A
N811        O818   1.262       .  A
C821        C822   1.399       .  A
C821        C826   1.404       .  A
C821        H831   1.084       .  S
C822        C827   1.475   1_556  S
C822        C823   1.405       .  A
C823        C824   1.398       .  A
C823        N828   1.431   1_556  S
C824        C825   1.410       .  A
C824        H829   1.083   1_565  S
C825        C826   1.418       .  A
C826        N830   1.428       .  S
C827        C832   1.406       .  A
C827        C836   1.399   1_554  A
N828        O843   1.262       .  A
N828        O844   1.262   1_554  A
N830        O841   1.261       .  A
N830        O842   1.262       .  A
C832        C833   1.400       .  A
C832        N837   1.428       .  S
C833        C834   1.406       .  A
C833        H838   1.084       .  S
C834        C835   1.417       .  A
C835        C836   1.398   1_554  A
C835        N839   1.431       .  S
C836        H840   1.084       .  S
N837        O847   1.262       .  A
N837        O848   1.262       .  A
N839        O845   1.262       .  A
N839        O846   1.262       .  A
C849        C850   1.400   1_554  A
C849        C854   1.395       .  A
C849        H859   1.085       .  S
C850        C855   1.473       .  S
C850        C851   1.405   1_556  A
C851        C852   1.402       .  A
C851        N856   1.427   1_554  S
C852        C853   1.406       .  A
C852        H857   1.084       .  S
C853        C854   1.413       .  A
C854        N858   1.429       .  S
C855        C860   1.406       .  A
C855        C864   1.404       .  A
N856        O871   1.262       .  A
N856        O872   1.262       .  A
N858        O869   1.262       .  A
N858        O870   1.262       .  A
C860        C861   1.394       .  A
C860        N865   1.430       .  S
C861        C862   1.403       .  A
C861        H866   1.085       .  S
C862        C863   1.411       .  A
C863        C864   1.405       .  A
C863        N867   1.428       .  S
C864        H868   1.084       .  S
N865        O875   1.262       .  A
N865        O876   1.262       .  A
N867        O873   1.262       .  A
N867        O874   1.262       .  A
C877        C878   1.400       .  A
C877        C882   1.398       .  A
C877        H887   1.084   1_554  S
C878        C883   1.480   1_554  S
C878        C879   1.406       .  A
C879        C880   1.404       .  A
C879        N884   1.428       .  S
C880        C881   1.410       .  A
C880        H885   1.083       .  S
C881        C882   1.417       .  A
C882        N886   1.430       .  S
C883        C888   1.407       .  A
C883        C892   1.399       .  A
N884        O899   1.262       .  A
N884        O900   1.262       .  A
N886        O897   1.262   1_455  A
N886        O898   1.262       .  A
C888        C889   1.401       .  A
C888        N893   1.430   1_556  S
C889        C890   1.408       .  A
C889        H894   1.084       .  S
C890        C891   1.418       .  A
C891        C892   1.404       .  A
C891        N895   1.428       .  S
C892        H896   1.084       .  S
N893        O903   1.262       .  A
N893        O904   1.262       .  A
N895        O901   1.262       .  A
N895        O902   1.262       .  A
C905        C906   1.401       .  A
C905        C910   1.399       .  A
C905        H915   1.084       .  S
C906        C911   1.474   1_655  S
C906        C907   1.405       .  A
C907        C908   1.398       .  A
C907        N912   1.429       .  S
C908        C909   1.406       .  A
C908        H913   1.084       .  S
C909        C910   1.414       .  A
C910        N914   1.430       .  S
C911        C916   1.407       .  A
C911        C920   1.402       .  A
N912        O927   1.261       .  A
N912        O928   1.262       .  A
N914        O925   1.262       .  A
N914        O926   1.262       .  A
C916        C917   1.396       .  A
C916        N921   1.431   1_455  S
C917        C918   1.405       .  A
C917        H922   1.084       .  S
C918        C919   1.411       .  A
C919        C920   1.405       .  A
C919        N923   1.429       .  S
C920        H924   1.084       .  S
N921        O931   1.262       .  A
N921        O932   1.262       .  A
N923        O929   1.262       .  A
N923        O930   1.261       .  A
C933        C934   1.398       .  A
C933        C938   1.392   1_655  A
C933        H943   1.085       .  S
C934        C939   1.481       .  S
C934        C935   1.412       .  A
C935        C936   1.407   1_655  A
C935        N940   1.428       .  S
C936        C937   1.405       .  A
C936        H941   1.084       .  S
C937        C938   1.415       .  A
C938        N942   1.431       .  S
C939        C944   1.408       .  A
C939        C948   1.406       .  A
N940        O955   1.262       .  A
N940        O956   1.262       .  A
N942        O953   1.261       .  A
N942        O954   1.262       .  A
C944        C945   1.398       .  A
C944        N949   1.430       .  S
C945        C946   1.407       .  A
C945        H950   1.084       .  S
C946        C947   1.412       .  A
C947        C948   1.404       .  A
C947        N951   1.428       .  S
C948        H952   1.084       .  S
N949        O959   1.262       .  A
N949        O960   1.262       .  A
N951        O957   1.261       .  A
N951        O958   1.261       .  A
C961        C962   1.399       .  A
C961        C966   1.393   1_556  A
C961        H971   1.085       .  S
C962        C967   1.478       .  S
C962        C963   1.407   1_556  A
C963        C964   1.404       .  A
C963        N968   1.427       .  S
C964        C965   1.407       .  A
C964        H969   1.084       .  S
C965        C966   1.416       .  A
C966        N970   1.430       .  S
C967        C972   1.410       .  A
C967        C976   1.402       .  A
N968        O983   1.262       .  A
N968        O984   1.262   1_554  A
N970        O981   1.261   1_545  A
N970        O982   1.262       .  A
C972        C973   1.398       .  A
C972        N977   1.429       .  S
C973        C974   1.399       .  A
C973        H978   1.084       .  S
C974        C975   1.409       .  A
C975        C976   1.402       .  A
C975        N979   1.429       .  S
C976        H980   1.084       .  S
N977        O987   1.262       .  A
N977        O988   1.262       .  A
N979        O985   1.261       .  A
N979        O986   1.262       .  A
C989        C990   1.407       .  A
C989        C994   1.406       .  A
C989        H999   1.083       .  S
C990        C995   1.493       .  S
C990        C991   1.413       .  A
C991        C992   1.402       .  A
C991        N996   1.429       .  S
C992        C993   1.403       .  A
C992        H997   1.084       .  S
C993        C994   1.409       .  A
C994        N998   1.428       .  S
C995       C1000   1.413       .  A
C995       C1004   1.403       .  A
N996       O1011   1.262       .  A
N996       O1012   1.262       .  A
N998       O1009   1.262       .  A
N998       O1010   1.262       .  A
C1000      C1001   1.408       .  A
C1000      N1005   1.428       .  S
C1001      C1002   1.406       .  A
C1001      H1006   1.084       .  S
C1002      C1003   1.414       .  A
C1003      C1004   1.400       .  A
C1003      N1007   1.430   1_455  S
C1004      H1008   1.084       .  S
N1005      O1015   1.262       .  A
N1005      O1016   1.262       .  A
N1007      O1013   1.262       .  A
N1007      O1014   1.261       .  A
C1017      C1018   1.405       .  A
C1017      C1022   1.405       .  A
C1017      H1027   1.084       .  S
C1018      C1023   1.478       .  S
C1018      C1019   1.408       .  A
C1019      C1020   1.396       .  A
C1019      N1024   1.429       .  S
C1020      C1021   1.401       .  A
C1020      H1025   1.083       .  S
C1021      C1022   1.410       .  A
C1022      N1026   1.430       .  S
C1023      C1028   1.407   1_556  A
C1023      C1032   1.398   1_556  A
N1024      O1039   1.262       .  A
N1024      O1040   1.262       .  A
N1026      O1037   1.262       .  A
N1026      O1038   1.262       .  A
C1028      C1029   1.405       .  A
C1028      N1033   1.427   1_554  S
C1029      C1030   1.407       .  A
C1029      H1034   1.084       .  S
C1030      C1031   1.417       .  A
C1031      C1032   1.395       .  A
C1031      N1035   1.430       .  S
C1032      H1036   1.085   1_554  S
N1033      O1043   1.262       .  A
N1033      O1044   1.262       .  A
N1035      O1041   1.262       .  A
N1035      O1042   1.261       .  A
C1045      C1046   1.403       .  A
C1045      C1050   1.406       .  A
C1045      H1055   1.084       .  S
C1046      C1051   1.488       .  S
C1046      C1047   1.410       .  A
C1047      C1048   1.403       .  A
C1047      N1052   1.430       .  S
C1048      C1049   1.408       .  A
C1048      H1053   1.084       .  S
C1049      C1050   1.416       .  A
C1050      N1054   1.428       .  S
C1051      C1056   1.413       .  A
C1051      C1060   1.402       .  A
N1052      O1067   1.262       .  A
N1052      O1068   1.262       .  A
N1054      O1065   1.261       .  A
N1054      O1066   1.261       .  A
C1056      C1057   1.407       .  A
C1056      N1061   1.428       .  S
C1057      C1058   1.403       .  A
C1057      H1062   1.084       .  S
C1058      C1059   1.410       .  A
C1059      C1060   1.398       .  A
C1059      N1063   1.430       .  S
C1060      H1064   1.084       .  S
N1061      O1071   1.262       .  A
N1061      O1072   1.262       .  A
N1063      O1069   1.261       .  A
N1063      O1070   1.262       .  A
C1073      C1074   1.400   1_655  A
C1073      C1078   1.402       .  A
C1073      H1083   1.084   1_556  S
C1074      C1079   1.477   1_556  S
C1074      C1075   1.405       .  A
C1075      C1076   1.399       .  A
C1075      N1080   1.429       .  S
C1076      C1077   1.408   1_455  A
C1076      H1081   1.084       .  S
C1077      C1078   1.418       .  A
C1078      N1082   1.430       .  S
C1079      C1084   1.405       .  A
C1079      C1088   1.403       .  A
N1080      O1095   1.262       .  A
N1080      O1096   1.261       .  A
N1082      O1093   1.262       .  A
N1082      O1094   1.262       .  A
C1084      C1085   1.393       .  A
C1084      N1089   1.430   1_554  S
C1085      C1086   1.406       .  A
C1085      H1090   1.082       .  S
C1086      C1087   1.416       .  A
C1087      C1088   1.408       .  A
C1087      N1091   1.429       .  S
C1088      H1092   1.084       .  S
N1089      O1099   1.262       .  A
N1089      O1100   1.262       .  A
N1091      O1097   1.262       .  A
N1091      O1098   1.262       .  A
C1101      C1102   1.402       .  A
C1101      C1106   1.408       .  A
C1101      H1111   1.084       .  S
C1102      C1107   1.475       .  S
C1102      C1103   1.405       .  A
C1103      C1104   1.391       .  A
C1103      N1108   1.430       .  S
C1104      C1105   1.405       .  A
C1104      H1109   1.084       .  S
C1105      C1106   1.417       .  A
C1106      N1110   1.429       .  S
C1107      C1112   1.407   1_565  A
C1107      C1116   1.402   1_565  A
N1108      O1123   1.262       .  A
N1108      O1124   1.262       .  A
N1110      O1121   1.262       .  A
N1110      O1122   1.262       .  A
C1112      C1113   1.399       .  A
C1112      N1117   1.428   1_545  S
C1113      C1114   1.404       .  A
C1113      H1118   1.084       .  S
C1114      C1115   1.411       .  A
C1115      C1116   1.399       .  A
C1115      N1119   1.429       .  S
C1116      H1120   1.084   1_545  S
N1117      O1127   1.262       .  A
N1117      O1128   1.262       .  A
N1119      O1125   1.262       .  A
N1119      O1126   1.262       .  A
C1129      C1130   1.400       .  A
C1129      C1134   1.401       .  A
C1129      H1139   1.084       .  S
C1130      C1135   1.485       .  S
C1130      C1131   1.409       .  A
C1131      C1132   1.403   1_655  A
C1131      N1136   1.428   1_655  S
C1132      C1133   1.406   1_455  A
C1132      H1137   1.084       .  S
C1133      C1134   1.418       .  A
C1134      N1138   1.430       .  S
C1135      C1140   1.409       .  A
C1135      C1144   1.399       .  A
N1136      O1151   1.262       .  A
N1136      O1152   1.262       .  A
N1138      O1149   1.262       .  A
N1138      O1150   1.262       .  A
C1140      C1141   1.403       .  A
C1140      N1145   1.428       .  S
C1141      C1142   1.406       .  A
C1141      H1146   1.084       .  S
C1142      C1143   1.420       .  A
C1143      C1144   1.402       .  A
C1143      N1147   1.429       .  S
C1144      H1148   1.084       .  S
N1145      O1155   1.262       .  A
N1145      O1156   1.262       .  A
N1147      O1153   1.262       .  A
N1147      O1154   1.262   1_655  A
C1157      C1158   1.403       .  A
C1157      C1162   1.403       .  A
C1157      H1167   1.084       .  S
C1158      C1163   1.480       .  S
C1158      C1159   1.408       .  A
C1159      C1160   1.397       .  A
C1159      N1164   1.429       .  S
C1160      C1161   1.404       .  A
C1160      H1165   1.084       .  S
C1161      C1162   1.413       .  A
C1162      N1166   1.429       .  S
C1163      C1168   1.410       .  A
C1163      C1172   1.400       .  A
N1164      O1179   1.262       .  A
N1164      O1180   1.262       .  A
N1166      O1177   1.262       .  A
N1166      O1178   1.262       .  A
C1168      C1169   1.400       .  A
C1168      N1173   1.429       .  S
C1169      C1170   1.404       .  A
C1169      H1174   1.084       .  S
C1170      C1171   1.415       .  A
C1171      C1172   1.400       .  A
C1171      N1175   1.429       .  S
C1172      H1176   1.084       .  S
N1173      O1183   1.262       .  A
N1173      O1184   1.262       .  A
N1175      O1181   1.262       .  A
N1175      O1182   1.262       .  A
C1185      C1186   1.406       .  A
C1185      C1190   1.403       .  A
C1185      H1195   1.084       .  S
C1186      C1191   1.481       .  S
C1186      C1187   1.410       .  A
C1187      C1188   1.398       .  A
C1187      N1192   1.429       .  S
C1188      C1189   1.402       .  A
C1188      H1193   1.085       .  S
C1189      C1190   1.409       .  A
C1190      N1194   1.429       .  S
C1191      C1196   1.409       .  A
C1191      C1200   1.400       .  A
N1192      O1207   1.262       .  A
N1192      O1208   1.262       .  A
N1194      O1205   1.262       .  A
N1194      O1206   1.262       .  A
C1196      C1197   1.406       .  A
C1196      N1201   1.428       .  S
C1197      C1198   1.407       .  A
C1197      H1202   1.084       .  S
C1198      C1199   1.413       .  A
C1199      C1200   1.395       .  A
C1199      N1203   1.429       .  S
C1200      H1204   1.085       .  S
N1201      O1211   1.262       .  A
N1201      O1212   1.262       .  A
N1203      O1209   1.262       .  A
N1203      O1210   1.261       .  A
C1213      C1214   1.402   1_545  A
C1213      C1218   1.401       .  A
C1213      H1223   1.084       .  S
C1214      C1219   1.479   1_565  S
C1214      C1215   1.410       .  A
C1215      C1216   1.400       .  A
C1215      N1220   1.429       .  S
C1216      C1217   1.401       .  A
C1216      H1221   1.084       .  S
C1217      C1218   1.412   1_565  A
C1218      N1222   1.432       .  S
C1219      C1224   1.406       .  A
C1219      C1228   1.402   1_545  A
N1220      O1235   1.261       .  A
N1220      O1236   1.262       .  A
N1222      O1233   1.262       .  A
N1222      O1234   1.262       .  A
C1224      C1225   1.399       .  A
C1224      N1229   1.429       .  S
C1225      C1226   1.406       .  A
C1225      H1230   1.084       .  S
C1226      C1227   1.415       .  A
C1227      C1228   1.403   1_545  A
C1227      N1231   1.429   1_545  S
C1228      H1232   1.084       .  S
N1229      O1239   1.262       .  A
N1229      O1240   1.262       .  A
N1231      O1237   1.262   1_565  A
N1231      O1238   1.262       .  A
C1241      C1242   1.403       .  A
C1241      C1246   1.405       .  A
C1241      H1251   1.084       .  S
C1242      C1247   1.476       .  S
C1242      C1243   1.407       .  A
C1243      C1244   1.393       .  A
C1243      N1248   1.430       .  S
C1244      C1245   1.405       .  A
C1244      H1249   1.084       .  S
C1245      C1246   1.412       .  A
C1246      N1250   1.428       .  S
C1247      C1252   1.408       .  A
C1247      C1256   1.401       .  A
N1248      O1263   1.262       .  A
N1248      O1264   1.262       .  A
N1250      O1261   1.261       .  A
N1250      O1262   1.262       .  A
C1252      C1253   1.398       .  A
C1252      N1257   1.428       .  S
C1253      C1254   1.402       .  A
C1253      H1258   1.084       .  S
C1254      C1255   1.412       .  A
C1255      C1256   1.401       .  A
C1255      N1259   1.427       .  S
C1256      H1260   1.084       .  S
N1257      O1267   1.262       .  A
N1257      O1268   1.262       .  A
N1259      O1265   1.261       .  A
N1259      O1266   1.262       .  A
C1269      C1270   1.401       .  A
C1269      C1274   1.395       .  A
C1269      H1279   1.084       .  S
C1270      C1275   1.480       .  S
C1270      C1271   1.410       .  A
C1271      C1272   1.405       .  A
C1271      N1276   1.428       .  S
C1272      C1273   1.403       .  A
C1272      H1277   1.084       .  S
C1273      C1274   1.407       .  A
C1274      N1278   1.427       .  S
C1275      C1280   1.413       .  A
C1275      C1284   1.404       .  A
N1276      O1291   1.261       .  A
N1276      O1292   1.261       .  A
N1278      O1289   1.262       .  A
N1278      O1290   1.262       .  A
C1280      C1281   1.401       .  A
C1280      N1285   1.430       .  S
C1281      C1282   1.400       .  A
C1281      H1286   1.085       .  S
C1282      C1283   1.407       .  A
C1283      C1284   1.401       .  A
C1283      N1287   1.429       .  S
C1284      H1288   1.084       .  S
N1285      O1295   1.262       .  A
N1285      O1296   1.262       .  A
N1287      O1293   1.261       .  A
N1287      O1294   1.262       .  A
C1297      C1298   1.404   1_565  A
C1297      C1302   1.406       .  A
C1297      H1307   1.084       .  S
C1298      C1303   1.484       .  S
C1298      C1299   1.406       .  A
C1299      C1300   1.397       .  A
C1299      N1304   1.430       .  S
C1300      C1301   1.410   1_545  A
C1300      H1305   1.083       .  S
C1301      C1302   1.416       .  A
C1302      N1306   1.428       .  S
C1303      C1308   1.412       .  A
C1303      C1312   1.403       .  A
N1304      O1319   1.262       .  A
N1304      O1320   1.262       .  A
N1306      O1317   1.262       .  A
N1306      O1318   1.262       .  A
C1308      C1309   1.401       .  A
C1308      N1313   1.429       .  S
C1309      C1310   1.400       .  A
C1309      H1314   1.084       .  S
C1310      C1311   1.410       .  A
C1311      C1312   1.403       .  A
C1311      N1315   1.429   1_545  S
C1312      H1316   1.084   1_545  S
N1313      O1323   1.262       .  A
N1313      O1324   1.262       .  A
N1315      O1321   1.262   1_565  A
N1315      O1322   1.262       .  A
C1325      C1326   1.404       .  A
C1325      C1330   1.405       .  A
C1325      H1335   1.084       .  S
C1326      C1331   1.478       .  S
C1326      C1327   1.406       .  A
C1327      C1328   1.394       .  A
C1327      N1332   1.430       .  S
C1328      C1329   1.403       .  A
C1328      H1333   1.082       .  S
C1329      C1330   1.413       .  A
C1330      N1334   1.428       .  S
C1331      C1336   1.407       .  A
C1331      C1340   1.405       .  A
N1332      O1347   1.261       .  A
N1332      O1348   1.262       .  A
N1334      O1345   1.262       .  A
N1334      O1346   1.262       .  A
C1336      C1337   1.397       .  A
C1336      N1341   1.430       .  S
C1337      C1338   1.404       .  A
C1337      H1342   1.084   1_565  S
C1338      C1339   1.407       .  A
C1339      C1340   1.403       .  A
C1339      N1343   1.428       .  S
C1340      H1344   1.084       .  S
N1341      O1351   1.262   1_565  A
N1341      O1352   1.262       .  A
N1343      O1349   1.262       .  A
N1343      O1350   1.261       .  A
C1353      C1354   1.407       .  A
C1353      C1358   1.407       .  A
C1353      H1363   1.084       .  S
C1354      C1359   1.487   1_455  S
C1354      C1355   1.410       .  A
C1355      C1356   1.397       .  A
C1355      N1360   1.429       .  S
C1356      C1357   1.402       .  A
C1356      H1361   1.085       .  S
C1357      C1358   1.410       .  A
C1358      N1362   1.428       .  S
C1359      C1364   1.411       .  A
C1359      C1368   1.401       .  A
N1360      O1375   1.262       .  A
N1360      O1376   1.262       .  A
N1362      O1373   1.262       .  A
N1362      O1374   1.262       .  A
C1364      C1365   1.407       .  A
C1364      N1369   1.428       .  S
C1365      C1366   1.405       .  A
C1365      H1370   1.084       .  S
C1366      C1367   1.415       .  A
C1367      C1368   1.396       .  A
C1367      N1371   1.431       .  S
C1368      H1372   1.084       .  S
N1369      O1379   1.262       .  A
N1369      O1380   1.262       .  A
N1371      O1377   1.262       .  A
N1371      O1378   1.262       .  A
C1381      C1382   1.399       .  A
C1381      C1386   1.400       .  A
C1381      H1391   1.084       .  S
C1382      C1387   1.481       .  S
C1382      C1383   1.408       .  A
C1383      C1384   1.400       .  A
C1383      N1388   1.429       .  S
C1384      C1385   1.408       .  A
C1384      H1389   1.083       .  S
C1385      C1386   1.416       .  A
C1386      N1390   1.425       .  S
C1387      C1392   1.408       .  A
C1387      C1396   1.401       .  A
N1388      O1403   1.262       .  A
N1388      O1404   1.262       .  A
N1390      O1401   1.262       .  A
N1390      O1402   1.261       .  A
C1392      C1393   1.399       .  A
C1392      N1397   1.429       .  S
C1393      C1394   1.409       .  A
C1393      H1398   1.084       .  S
C1394      C1395   1.415       .  A
C1395      C1396   1.399       .  A
C1395      N1399   1.429       .  S
C1396      H1400   1.084       .  S
N1397      O1407   1.262       .  A
N1397      O1408   1.262       .  A
N1399      O1405   1.262       .  A
N1399      O1406   1.262       .  A
C1409      C1410   1.396       .  A
C1409      C1414   1.397       .  A
C1409      H1419   1.084       .  S
C1410      C1415   1.480       .  S
C1410      C1411   1.408       .  A
C1411      C1412   1.407       .  A
C1411      N1416   1.429       .  S
C1412      C1413   1.409       .  A
C1412      H1417   1.084       .  S
C1413      C1414   1.415       .  A
C1414      N1418   1.426       .  S
C1415      C1420   1.409       .  A
C1415      C1424   1.407       .  A
N1416      O1431   1.262       .  A
N1416      O1432   1.262       .  A
N1418      O1429   1.261       .  A
N1418      O1430   1.262       .  A
C1420      C1421   1.390       .  A
C1420      N1425   1.429       .  S
C1421      C1422   1.399       .  A
C1421      H1426   1.085       .  S
C1422      C1423   1.408       .  A
C1423      C1424   1.408       .  A
C1423      N1427   1.428       .  S
C1424      H1428   1.083       .  S
N1425      O1435   1.262       .  A
N1425      O1436   1.262       .  A
N1427      O1433   1.262       .  A
N1427      O1434   1.262       .  A
C1437      C1438   1.397       .  A
C1437      C1442   1.404   1_655  A
C1437      H1447   1.084       .  S
C1438      C1443   1.464       .  S
C1438      C1439   1.402       .  A
C1439      C1440   1.388   1_655  A
C1439      N1444   1.430       .  S
C1440      C1441   1.405       .  A
C1440      H1445   1.084       .  S
C1441      C1442   1.418       .  A
C1442      N1446   1.430       .  S
C1443      C1448   1.404       .  A
C1443      C1452   1.401       .  A
N1444      O1459   1.262       .  A
N1444      O1460   1.262       .  A
N1446      O1457   1.262       .  A
N1446      O1458   1.262       .  A
C1448      C1449   1.393       .  A
C1448      N1453   1.430       .  S
C1449      C1450   1.402       .  A
C1449      H1454   1.081       .  S
C1450      C1451   1.409       .  A
C1451      C1452   1.399       .  A
C1451      N1455   1.428       .  S
C1452      H1456   1.084       .  S
N1453      O1463   1.262       .  A
N1453      O1464   1.262       .  A
N1455      O1461   1.262       .  A
N1455      O1462   1.262       .  A
C1465      C1466   1.405       .  A
C1465      C1470   1.411       .  A
C1465      H1475   1.084       .  S
C1466      C1471   1.482       .  S
C1466      C1467   1.407       .  A
C1467      C1468   1.393       .  A
C1467      N1472   1.430       .  S
C1468      C1469   1.404       .  A
C1468      H1473   1.084       .  S
C1469      C1470   1.416       .  A
C1470      N1474   1.429       .  S
C1471      C1476   1.409   1_545  A
C1471      C1480   1.401   1_545  A
N1472      O1487   1.262       .  A
N1472      O1488   1.261       .  A
N1474      O1485   1.262       .  A
N1474      O1486   1.262       .  A
C1476      C1477   1.406       .  A
C1476      N1481   1.428   1_565  S
C1477      C1478   1.405       .  A
C1477      H1482   1.084       .  S
C1478      C1479   1.411       .  A
C1479      C1480   1.398       .  A
C1479      N1483   1.429       .  S
C1480      H1484   1.084   1_565  S
N1481      O1491   1.262       .  A
N1481      O1492   1.262       .  A
N1483      O1489   1.261   1_455  A
N1483      O1490   1.262   1_455  A
C1493      C1494   1.397       .  A
C1493      C1498   1.397       .  A
C1493      H1503   1.084       .  S
C1494      C1499   1.481       .  S
C1494      C1495   1.410   1_655  A
C1495      C1496   1.406       .  A
C1495      N1500   1.428       .  S
C1496      C1497   1.407   1_455  A
C1496      H1501   1.084       .  S
C1497      C1498   1.420       .  A
C1498      N1502   1.429       .  S
C1499      C1504   1.406       .  A
C1499      C1508   1.402       .  A
N1500      O1515   1.262       .  A
N1500      O1516   1.262       .  A
N1502      O1513   1.262       .  A
N1502      O1514   1.262       .  A
C1504      C1505   1.402       .  A
C1504      N1509   1.428       .  S
C1505      C1506   1.408       .  A
C1505      H1510   1.084       .  S
C1506      C1507   1.416       .  A
C1507      C1508   1.402       .  A
C1507      N1511   1.429       .  S
C1508      H1512   1.084       .  S
N1509      O1519   1.262       .  A
N1509      O1520   1.261   1_655  A
N1511      O1517   1.262       .  A
N1511      O1518   1.261       .  A
C1521      C1522   1.402       .  A
C1521      C1526   1.404       .  A
C1521      H1531   1.084       .  S
C1522      C1527   1.474       .  S
C1522      C1523   1.406       .  A
C1523      C1524   1.396       .  A
C1523      N1528   1.430       .  S
C1524      C1525   1.403       .  A
C1524      H1529   1.085       .  S
C1525      C1526   1.409       .  A
C1526      N1530   1.427       .  S
C1527      C1532   1.406       .  A
C1527      C1536   1.401       .  A
N1528      O1543   1.262       .  A
N1528      O1544   1.262       .  A
N1530      O1541   1.262       .  A
N1530      O1542   1.261       .  A
C1532      C1533   1.393       .  A
C1532      N1537   1.430       .  S
C1533      C1534   1.404       .  A
C1533      H1538   1.084       .  S
C1534      C1535   1.414       .  A
C1535      C1536   1.405       .  A
C1535      N1539   1.428       .  S
C1536      H1540   1.084       .  S
N1537      O1547   1.262       .  A
N1537      O1548   1.262       .  A
N1539      O1545   1.262       .  A
N1539      O1546   1.262   1_545  A
C1549      C1550   1.408       .  A
C1549      C1554   1.404       .  A
C1549      H1559   1.083       .  S
C1550      C1555   1.495       .  S
C1550      C1551   1.416       .  A
C1551      C1552   1.401       .  A
C1551      N1556   1.431       .  S
C1552      C1553   1.397       .  A
C1552      H1557   1.081       .  S
C1553      C1554   1.407       .  A
C1554      N1558   1.428       .  S
C1555      C1560   1.413       .  A
C1555      C1564   1.406       .  A
N1556      O1571   1.262       .  A
N1556      O1572   1.262       .  A
N1558      O1569   1.262       .  A
N1558      O1570   1.262       .  A
C1560      C1561   1.399   1_455  A
C1560      N1565   1.429   1_455  S
C1561      C1562   1.406       .  A
C1561      H1566   1.084       .  S
C1562      C1563   1.416   1_655  A
C1563      C1564   1.405       .  A
C1563      N1567   1.429       .  S
C1564      H1568   1.083       .  S
N1565      O1575   1.262       .  A
N1565      O1576   1.262       .  A
N1567      O1573   1.262       .  A
N1567      O1574   1.262       .  A
C1577      C1578   1.402   1_545  A
C1577      C1582   1.405       .  A
C1577      H1587   1.084   1_545  S
C1578      C1583   1.485       .  S
C1578      C1579   1.408   1_565  A
C1579      C1580   1.399       .  A
C1579      N1584   1.429   1_545  S
C1580      C1581   1.407       .  A
C1580      H1585   1.084       .  S
C1581      C1582   1.418       .  A
C1582      N1586   1.429       .  S
C1583      C1588   1.412       .  A
C1583      C1592   1.403       .  A
N1584      O1599   1.262       .  A
N1584      O1600   1.262       .  A
N1586      O1597   1.262       .  A
N1586      O1598   1.262       .  A
C1588      C1589   1.403       .  A
C1588      N1593   1.429       .  S
C1589      C1590   1.401       .  A
C1589      H1594   1.084       .  S
C1590      C1591   1.410       .  A
C1591      C1592   1.403       .  A
C1591      N1595   1.430       .  S
C1592      H1596   1.084       .  S
N1593      O1603   1.262       .  A
N1593      O1604   1.262       .  A
N1595      O1601   1.262       .  A
N1595      O1602   1.261       .  A
C1605      C1606   1.403       .  A
C1605      C1610   1.407       .  A
C1605      H1615   1.084       .  S
C1606      C1611   1.480       .  S
C1606      C1607   1.407       .  A
C1607      C1608   1.395       .  A
C1607      N1612   1.430       .  S
C1608      C1609   1.404       .  A
C1608      H1613   1.085       .  S
C1609      C1610   1.412       .  A
C1610      N1614   1.428       .  S
C1611      C1616   1.410       .  A
C1611      C1620   1.402       .  A
N1612      O1627   1.262       .  A
N1612      O1628   1.262       .  A
N1614      O1625   1.262       .  A
N1614      O1626   1.262       .  A
C1616      C1617   1.400       .  A
C1616      N1621   1.428       .  S
C1617      C1618   1.401       .  A
C1617      H1622   1.084       .  S
C1618      C1619   1.409       .  A
C1619      C1620   1.402       .  A
C1619      N1623   1.427   1_455  S
C1620      H1624   1.084       .  S
N1621      O1631   1.262       .  A
N1621      O1632   1.262       .  A
N1623      O1629   1.262   1_655  A
N1623      O1630   1.262       .  A
C1633      C1634   1.404       .  A
C1633      C1638   1.407       .  A
C1633      H1643   1.084       .  S
C1634      C1639   1.477       .  S
C1634      C1635   1.404       .  A
C1635      C1636   1.392       .  A
C1635      N1640   1.429       .  S
C1636      C1637   1.405       .  A
C1636      H1641   1.083       .  S
C1637      C1638   1.413       .  A
C1638      N1642   1.428       .  S
C1639      C1644   1.407       .  A
C1639      C1648   1.402       .  A
N1640      O1655   1.262       .  A
N1640      O1656   1.262       .  A
N1642      O1653   1.262       .  A
N1642      O1654   1.262       .  A
C1644      C1645   1.397       .  A
C1644      N1649   1.430       .  S
C1645      C1646   1.403       .  A
C1645      H1650   1.081       .  S
C1646      C1647   1.412       .  A
C1647      C1648   1.405       .  A
C1647      N1651   1.426       .  S
C1648      H1652   1.084       .  S
N1649      O1659   1.261       .  A
N1649      O1660   1.262       .  A
N1651      O1657   1.262       .  A
N1651      O1658   1.262       .  A
C1661      C1662   1.399       .  A
C1661      C1666   1.394       .  A
C1661      H1671   1.085       .  S
C1662      C1667   1.484       .  S
C1662      C1663   1.411       .  A
C1663      C1664   1.409       .  A
C1663      N1668   1.427       .  S
C1664      C1665   1.406       .  A
C1664      H1669   1.084       .  S
C1665      C1666   1.416       .  A
C1666      N1670   1.430       .  S
C1667      C1672   1.410       .  A
C1667      C1676   1.402       .  A
N1668      O1683   1.262       .  A
N1668      O1684   1.262       .  A
N1670      O1681   1.262       .  A
N1670      O1682   1.262       .  A
C1672      C1673   1.406       .  A
C1672      N1677   1.428       .  S
C1673      C1674   1.406       .  A
C1673      H1678   1.084       .  S
C1674      C1675   1.413       .  A
C1675      C1676   1.397       .  A
C1675      N1679   1.430       .  S
C1676      H1680   1.084       .  S
N1677      O1687   1.262       .  A
N1677      O1688   1.261       .  A
N1679      O1685   1.262       .  A
N1679      O1686   1.262   1_554  A
C1689      C1690   1.404       .  A
C1689      C1694   1.402       .  A
C1689      H1699   1.084       .  S
C1690      C1695   1.483       .  S
C1690      C1691   1.410       .  A
C1691      C1692   1.399       .  A
C1691      N1696   1.429       .  S
C1692      C1693   1.405       .  A
C1692      H1697   1.084       .  S
C1693      C1694   1.414       .  A
C1694      N1698   1.429       .  S
C1695      C1700   1.411       .  A
C1695      C1704   1.400       .  A
N1696      O1711   1.262       .  A
N1696      O1712   1.262       .  A
N1698      O1709   1.262       .  A
N1698      O1710   1.262       .  A
C1700      C1701   1.406       .  A
C1700      N1705   1.428       .  S
C1701      C1702   1.405       .  A
C1701      H1706   1.084       .  S
C1702      C1703   1.411       .  A
C1703      C1704   1.395       .  A
C1703      N1707   1.428       .  S
C1704      H1708   1.085       .  S
N1705      O1715   1.262       .  A
N1705      O1716   1.262       .  A
N1707      O1713   1.261       .  A
N1707      O1714   1.262       .  A
C1717      C1718   1.404       .  A
C1717      C1722   1.408       .  A
C1717      H1727   1.084   1_554  S
C1718      C1723   1.472       .  S
C1718      C1719   1.403       .  A
C1719      C1720   1.388       .  A
C1719      N1724   1.430       .  S
C1720      C1721   1.406       .  A
C1720      H1725   1.084       .  S
C1721      C1722   1.414       .  A
C1722      N1726   1.428   1_554  S
C1723      C1728   1.405       .  A
C1723      C1732   1.397       .  A
N1724      O1739   1.262       .  A
N1724      O1740   1.262       .  A
N1726      O1737   1.262       .  A
N1726      O1738   1.262       .  A
C1728      C1729   1.400       .  A
C1728      N1733   1.427       .  S
C1729      C1730   1.406       .  A
C1729      H1734   1.084       .  S
C1730      C1731   1.419       .  A
C1731      C1732   1.396       .  A
C1731      N1735   1.430       .  S
C1732      H1736   1.084       .  S
N1733      O1743   1.262       .  A
N1733      O1744   1.262       .  A
N1735      O1741   1.261       .  A
N1735      O1742   1.262       .  A
C1745      C1746   1.402       .  A
C1745      C1750   1.396       .  A
C1745      H1755   1.084       .  S
C1746      C1751   1.492       .  S
C1746      C1747   1.414       .  A
C1747      C1748   1.408       .  A
C1747      N1752   1.428       .  S
C1748      C1749   1.404       .  A
C1748      H1753   1.084       .  S
C1749      C1750   1.413       .  A
C1750      N1754   1.430       .  S
C1751      C1756   1.411       .  A
C1751      C1760   1.406       .  A
N1752      O1767   1.262       .  A
N1752      O1768   1.262       .  A
N1754      O1765   1.262       .  A
N1754      O1766   1.262       .  A
C1756      C1757   1.396       .  A
C1756      N1761   1.430       .  S
C1757      C1758   1.405       .  A
C1757      H1762   1.084       .  S
C1758      C1759   1.417       .  A
C1759      C1760   1.409       .  A
C1759      N1763   1.428   1_455  S
C1760      H1764   1.083       .  S
N1761      O1771   1.262       .  A
N1761      O1772   1.262       .  A
N1763      O1769   1.262       .  A
N1763      O1770   1.262       .  A
C1773      C1774   1.400       .  A
C1773      C1778   1.393       .  A
C1773      H1783   1.084       .  S
C1774      C1779   1.477       .  S
C1774      C1775   1.408       .  A
C1775      C1776   1.400       .  A
C1775      N1780   1.429       .  S
C1776      C1777   1.407       .  A
C1776      H1781   1.084       .  S
C1777      C1778   1.415       .  A
C1778      N1782   1.430       .  S
C1779      C1784   1.413       .  A
C1779      C1788   1.403       .  A
N1780      O1795   1.262       .  A
N1780      O1796   1.262       .  A
N1782      O1793   1.262       .  A
N1782      O1794   1.262       .  A
C1784      C1785   1.401       .  A
C1784      N1789   1.430       .  S
C1785      C1786   1.400       .  A
C1785      H1790   1.084       .  S
C1786      C1787   1.406       .  A
C1787      C1788   1.396       .  A
C1787      N1791   1.428       .  S
C1788      H1792   1.084       .  S
N1789      O1799   1.262       .  A
N1789      O1800   1.262       .  A
N1791      O1797   1.262       .  A
N1791      O1798   1.261       .  A
C1801      C1802   1.402       .  A
C1801      C1806   1.400       .  A
C1801      H1811   1.084       .  S
C1802      C1807   1.488       .  S
C1802      C1803   1.413       .  A
C1803      C1804   1.406       .  A
C1803      N1808   1.428       .  S
C1804      C1805   1.401       .  A
C1804      H1809   1.084       .  S
C1805      C1806   1.412       .  A
C1806      N1810   1.430       .  S
C1807      C1812   1.411       .  A
C1807      C1816   1.407       .  A
N1808      O1823   1.262       .  A
N1808      O1824   1.262       .  A
N1810      O1821   1.262       .  A
N1810      O1822   1.262       .  A
C1812      C1813   1.398       .  A
C1812      N1817   1.429       .  S
C1813      C1814   1.402       .  A
C1813      H1818   1.085       .  S
C1814      C1815   1.411       .  A
C1815      C1816   1.409       .  A
C1815      N1819   1.428       .  S
C1816      H1820   1.084       .  S
N1817      O1827   1.262       .  A
N1817      O1828   1.262       .  A
N1819      O1825   1.262       .  A
N1819      O1826   1.262       .  A
C1829      C1830   1.403       .  A
C1829      C1834   1.404       .  A
C1829      H1839   1.084       .  S
C1830      C1835   1.472       .  S
C1830      C1831   1.406       .  A
C1831      C1832   1.392       .  A
C1831      N1836   1.430       .  S
C1832      C1833   1.401       .  A
C1832      H1837   1.085       .  S
C1833      C1834   1.411       .  A
C1834      N1838   1.429       .  S
C1835      C1840   1.404       .  A
C1835      C1844   1.402       .  A
N1836      O1851   1.262       .  A
N1836      O1852   1.262       .  A
N1838      O1849   1.262       .  A
N1838      O1850   1.262       .  A
C1840      C1841   1.397       .  A
C1840      N1845   1.429       .  S
C1841      C1842   1.407       .  A
C1841      H1846   1.084       .  S
C1842      C1843   1.413       .  A
C1843      C1844   1.401       .  A
C1843      N1847   1.431       .  S
C1844      H1848   1.084       .  S
N1845      O1855   1.262       .  A
N1845      O1856   1.262       .  A
N1847      O1853   1.262       .  A
N1847      O1854   1.262       .  A
C1857      C1858   1.398       .  A
C1857      C1862   1.396       .  A
C1857      H1867   1.085       .  S
C1858      C1863   1.481       .  S
C1858      C1859   1.410       .  A
C1859      C1860   1.404       .  A
C1859      N1864   1.428       .  S
C1860      C1861   1.405       .  A
C1860      H1865   1.084       .  S
C1861      C1862   1.415       .  A
C1862      N1866   1.429       .  S
C1863      C1868   1.408       .  A
C1863      C1872   1.403       .  A
N1864      O1879   1.262       .  A
N1864      O1880   1.262       .  A
N1866      O1877   1.262       .  A
N1866      O1878   1.261       .  A
C1868      C1869   1.396       .  A
C1868      N1873   1.430       .  S
C1869      C1870   1.407       .  A
C1869      H1874   1.082       .  S
C1870      C1871   1.416       .  A
C1871      C1872   1.405       .  A
C1871      N1875   1.428       .  S
C1872      H1876   1.084       .  S
N1873      O1883   1.262       .  A
N1873      O1884   1.261       .  A
N1875      O1881   1.262       .  A
N1875      O1882   1.262       .  A
C1885      C1886   1.401       .  A
C1885      C1890   1.396       .  A
C1885      H1895   1.084       .  S
C1886      C1891   1.473       .  S
C1886      C1887   1.408       .  A
C1887      C1888   1.402       .  A
C1887      N1892   1.428       .  S
C1888      C1889   1.403       .  A
C1888      H1893   1.083       .  S
C1889      C1890   1.408       .  A
C1890      N1894   1.429       .  S
C1891      C1896   1.406       .  A
C1891      C1900   1.404       .  A
N1892      O1907   1.262       .  A
N1892      O1908   1.262       .  A
N1894      O1905   1.262       .  A
N1894      O1906   1.262       .  A
C1896      C1897   1.393       .  A
C1896      N1901   1.429       .  S
C1897      C1898   1.402       .  A
C1897      H1902   1.084       .  S
C1898      C1899   1.411       .  A
C1899      C1900   1.405       .  A
C1899      N1903   1.429       .  S
C1900      H1904   1.084       .  S
N1901      O1911   1.262       .  A
N1901      O1912   1.262       .  A
N1903      O1909   1.261       .  A
N1903      O1910   1.261       .  A
C1913      C1914   1.404       .  A
C1913      C1918   1.408       .  A
C1913      H1923   1.084       .  S
C1914      C1919   1.488       .  S
C1914      C1915   1.410       .  A
C1915      C1916   1.400       .  A
C1915      N1920   1.430       .  S
C1916      C1917   1.405       .  A
C1916      H1921   1.084       .  S
C1917      C1918   1.414       .  A
C1918      N1922   1.428       .  S
C1919      C1924   1.407       .  A
C1919      C1928   1.406       .  A
N1920      O1935   1.262       .  A
N1920      O1936   1.262       .  A
N1922      O1933   1.262       .  A
N1922      O1934   1.262       .  A
C1924      C1925   1.397       .  A
C1924      N1929   1.430       .  S
C1925      C1926   1.407       .  A
C1925      H1930   1.084       .  S
C1926      C1927   1.416       .  A
C1927      C1928   1.411       .  A
C1927      N1931   1.428       .  S
C1928      H1932   1.084       .  S
N1929      O1939   1.262       .  A
N1929      O1940   1.262       .  A
N1931      O1937   1.262   1_565  A
N1931      O1938   1.262       .  A
C1941      C1942   1.410       .  A
C1941      C1946   1.410       .  A
C1941      H1951   1.083       .  S
C1942      C1947   1.491       .  S
C1942      C1943   1.412       .  A
C1943      C1944   1.392       .  A
C1943      N1948   1.430       .  S
C1944      C1945   1.400       .  A
C1944      H1949   1.081       .  S
C1945      C1946   1.409       .  A
C1946      N1950   1.429       .  S
C1947      C1952   1.414       .  A
C1947      C1956   1.403       .  A
N1948      O1963   1.262       .  A
N1948      O1964   1.262       .  A
N1950      O1961   1.261       .  A
N1950      O1962   1.262   1_554  A
C1952      C1953   1.406       .  A
C1952      N1957   1.428       .  S
C1953      C1954   1.402       .  A
C1953      H1958   1.084       .  S
C1954      C1955   1.411       .  A
C1955      C1956   1.400       .  A
C1955      N1959   1.429   1_554  S
C1956      H1960   1.084   1_554  S
N1957      O1967   1.262       .  A
N1957      O1968   1.262       .  A
N1959      O1965   1.262       .  A
N1959      O1966   1.262   1_556  A
C1969      C1970   1.401       .  A
C1969      C1974   1.400       .  A
C1969      H1979   1.084       .  S
C1970      C1975   1.482       .  S
C1970      C1971   1.408       .  A
C1971      C1972   1.400       .  A
C1971      N1976   1.429       .  S
C1972      C1973   1.407       .  A
C1972      H1977   1.084       .  S
C1973      C1974   1.416       .  A
C1974      N1978   1.429       .  S
C1975      C1980   1.410       .  A
C1975      C1984   1.402       .  A
N1976      O1991   1.262       .  A
N1976      O1992   1.262       .  A
N1978      O1989   1.262       .  A
N1978      O1990   1.262       .  A
C1980      C1981   1.399       .  A
C1980      N1985   1.431       .  S
C1981      C1982   1.405       .  A
C1981      H1986   1.083       .  S
C1982      C1983   1.412       .  A
C1983      C1984   1.404       .  A
C1983      N1987   1.426       .  S
C1984      H1988   1.084       .  S
N1985      O1995   1.262       .  A
N1985      O1996   1.262       .  A
N1987      O1993   1.262       .  A
N1987      O1994   1.262       .  A
C1997      C1998   1.403       .  A
C1997      C2002   1.402       .  A
C1997      H2007   1.084       .  S
C1998      C2003   1.481       .  S
C1998      C1999   1.412       .  A
C1999      C2000   1.400       .  A
C1999      N2004   1.429       .  S
C2000      C2001   1.399       .  A
C2000      H2005   1.084       .  S
C2001      C2002   1.407       .  A
C2002      N2006   1.428       .  S
C2003      C2008   1.410       .  A
C2003      C2012   1.398       .  A
N2004      O2019   1.262       .  A
N2004      O2020   1.262       .  A
N2006      O2017   1.261       .  A
N2006      O2018   1.262       .  A
C2008      C2009   1.406       .  A
C2008      N2013   1.428       .  S
C2009      C2010   1.406       .  A
C2009      H2014   1.084       .  S
C2010      C2011   1.417       .  A
C2011      C2012   1.393       .  A
C2011      N2015   1.430       .  S
C2012      H2016   1.085       .  S
N2013      O2023   1.262       .  A
N2013      O2024   1.262       .  A
N2015      O2021   1.261       .  A
N2015      O2022   1.262       .  A
C2025      C2026   1.399       .  A
C2025      C2030   1.397       .  A
C2025      H2035   1.084       .  S
C2026      C2031   1.486       .  S
C2026      C2027   1.412       .  A
C2027      C2028   1.404       .  A
C2027      N2032   1.429       .  S
C2028      C2029   1.405       .  A
C2028      H2033   1.084       .  S
C2029      C2030   1.415       .  A
C2030      N2034   1.428       .  S
C2031      C2036   1.411       .  A
C2031      C2040   1.408       .  A
N2032      O2047   1.262       .  A
N2032      O2048   1.262       .  A
N2034      O2045   1.261       .  A
N2034      O2046   1.262   1_554  A
C2036      C2037   1.397       .  A
C2036      N2041   1.430       .  S
C2037      C2038   1.405       .  A
C2037      H2042   1.085       .  S
C2038      C2039   1.410       .  A
C2039      C2040   1.406       .  A
C2039      N2043   1.428   1_554  S
C2040      H2044   1.084   1_554  S
N2041      O2051   1.262       .  A
N2041      O2052   1.262       .  A
N2043      O2049   1.261       .  A
N2043      O2050   1.261       .  A
C2053      C2054   1.400       .  A
C2053      C2058   1.401       .  A
C2053      H2063   1.084       .  S
C2054      C2059   1.478       .  S
C2054      C2055   1.406       .  A
C2055      C2056   1.399       .  A
C2055      N2060   1.429       .  S
C2056      C2057   1.408       .  A
C2056      H2061   1.084       .  S
C2057      C2058   1.417       .  A
C2058      N2062   1.429       .  S
C2059      C2064   1.408       .  A
C2059      C2068   1.402       .  A
N2060      O2075   1.262       .  A
N2060      O2076   1.261       .  A
N2062      O2073   1.262       .  A
N2062      O2074   1.262       .  A
C2064      C2065   1.399       .  A
C2064      N2069   1.428       .  S
C2065      C2066   1.402       .  A
C2065      H2070   1.084       .  S
C2066      C2067   1.414       .  A
C2067      C2068   1.403       .  A
C2067      N2071   1.430       .  S
C2068      H2072   1.084       .  S
N2069      O2079   1.262       .  A
N2069      O2080   1.262       .  A
N2071      O2077   1.262       .  A
N2071      O2078   1.262       .  A
C2081      C2082   1.402       .  A
C2081      C2086   1.397       .  A
C2081      H2091   1.084       .  S
C2082      C2087   1.476       .  S
C2082      C2083   1.409       .  A
C2083      C2084   1.400       .  A
C2083      N2088   1.428       .  S
C2084      C2085   1.404       .  A
C2084      H2089   1.083       .  S
C2085      C2086   1.408       .  A
C2086      N2090   1.429       .  S
C2087      C2092   1.407       .  A
C2087      C2096   1.400       .  A
N2088      O2103   1.262       .  A
N2088      O2104   1.262       .  A
N2090      O2101   1.262       .  A
N2090      O2102   1.262       .  A
C2092      C2093   1.399       .  A
C2092      N2097   1.429       .  S
C2093      C2094   1.406       .  A
C2093      H2098   1.084       .  S
C2094      C2095   1.416       .  A
C2095      C2096   1.401       .  A
C2095      N2099   1.429       .  S
C2096      H2100   1.084       .  S
N2097      O2107   1.262       .  A
N2097      O2108   1.262       .  A
N2099      O2105   1.262       .  A
N2099      O2106   1.261       .  A
C2109      C2110   1.399       .  A
C2109      C2114   1.398       .  A
C2109      H2119   1.084       .  S
C2110      C2115   1.484       .  S
C2110      C2111   1.412       .  A
C2111      C2112   1.406       .  A
C2111      N2116   1.429       .  S
C2112      C2113   1.405       .  A
C2112      H2117   1.084       .  S
C2113      C2114   1.415       .  A
C2114      N2118   1.429       .  S
C2115      C2120   1.407       .  A
C2115      C2124   1.402       .  A
N2116      O2131   1.262       .  A
N2116      O2132   1.261       .  A
N2118      O2129   1.262       .  A
N2118      O2130   1.262       .  A
C2120      C2121   1.402       .  A
C2120      N2125   1.429       .  S
C2121      C2122   1.410       .  A
C2121      H2126   1.083       .  S
C2122      C2123   1.416       .  A
C2123      C2124   1.403       .  A
C2123      N2127   1.428       .  S
C2124      H2128   1.084       .  S
N2125      O2135   1.262       .  A
N2125      O2136   1.262       .  A
N2127      O2133   1.262       .  A
N2127      O2134   1.262       .  A
C2137      C2138   1.402       .  A
C2137      C2142   1.400       .  A
C2137      H2147   1.084       .  S
C2138      C2143   1.483       .  S
C2138      C2139   1.411       .  A
C2139      C2140   1.395       .  A
C2139      N2144   1.430       .  S
C2140      C2141   1.405       .  A
C2140      H2145   1.084       .  S
C2141      C2142   1.416       .  A
C2142      N2146   1.428       .  S
C2143      C2148   1.413       .  A
C2143      C2152   1.404       .  A
N2144      O2159   1.262       .  A
N2144      O2160   1.262       .  A
N2146      O2157   1.262       .  A
N2146      O2158   1.262       .  A
C2148      C2149   1.395       .  A
C2148      N2153   1.429       .  S
C2149      C2150   1.398       .  A
C2149      H2154   1.085       .  S
C2150      C2151   1.408       .  A
C2151      C2152   1.401       .  A
C2151      N2155   1.428       .  S
C2152      H2156   1.084       .  S
N2153      O2163   1.262       .  A
N2153      O2164   1.262       .  A
N2155      O2161   1.262       .  A
N2155      O2162   1.261       .  A
C2165      C2166   1.404       .  A
C2165      C2170   1.405       .  A
C2165      H2175   1.084       .  S
C2166      C2171   1.495       .  S
C2166      C2167   1.412       .  A
C2167      C2168   1.406       .  A
C2167      N2172   1.430       .  S
C2168      C2169   1.408       .  A
C2168      H2173   1.084       .  S
C2169      C2170   1.417       .  A
C2170      N2174   1.428       .  S
C2171      C2176   1.415       .  A
C2171      C2180   1.405       .  A
N2172      O2187   1.262       .  A
N2172      O2188   1.262       .  A
N2174      O2185   1.262       .  A
N2174      O2186   1.262       .  A
C2176      C2177   1.405       .  A
C2176      N2181   1.429       .  S
C2177      C2178   1.402       .  A
C2177      H2182   1.084       .  S
C2178      C2179   1.412       .  A
C2179      C2180   1.404       .  A
C2179      N2183   1.429       .  S
C2180      H2184   1.084       .  S
N2181      O2191   1.262       .  A
N2181      O2192   1.262       .  A
N2183      O2189   1.262       .  A
N2183      O2190   1.262       .  A
C2193      C2194   1.403       .  A
C2193      C2198   1.401       .  A
C2193      H2203   1.084       .  S
C2194      C2199   1.476       .  S
C2194      C2195   1.405       .  A
C2195      C2196   1.398       .  A
C2195      N2200   1.428       .  S
C2196      C2197   1.406       .  A
C2196      H2201   1.084       .  S
C2197      C2198   1.411       .  A
C2198      N2202   1.429       .  S
C2199      C2204   1.405       .  A
C2199      C2208   1.401       .  A
N2200      O2215   1.261       .  A
N2200      O2216   1.262       .  A
N2202      O2213   1.262       .  A
N2202      O2214   1.262       .  A
C2204      C2205   1.394       .  A
C2204      N2209   1.431       .  S
C2205      C2206   1.408       .  A
C2205      H2210   1.084       .  S
C2206      C2207   1.417       .  A
C2207      C2208   1.405       .  A
C2207      N2211   1.429       .  S
C2208      H2212   1.084       .  S
N2209      O2219   1.262       .  A
N2209      O2220   1.262       .  A
N2211      O2217   1.262       .  A
N2211      O2218   1.262       .  A
C2221      C2222   1.406       .  A
C2221      C2226   1.406       .  A
C2221      H2231   1.082       .  S
C2222      C2227   1.501       .  S
C2222      C2223   1.416       .  A
C2223      C2224   1.401       .  A
C2223      N2228   1.430       .  S
C2224      C2225   1.405       .  A
C2224      H2229   1.084       .  S
C2225      C2226   1.413       .  A
C2226      N2230   1.426       .  S
C2227      C2232   1.417       .  A
C2227      C2236   1.405       .  A
N2228      O2243   1.262       .  A
N2228      O2244   1.262       .  A
N2230      O2241   1.261       .  A
N2230      O2242   1.261       .  A
C2232      C2233   1.407       .  A
C2232      N2237   1.429       .  S
C2233      C2234   1.405       .  A
C2233      H2238   1.084   1_455  S
C2234      C2235   1.416       .  A
C2235      C2236   1.401       .  A
C2235      N2239   1.430       .  S
C2236      H2240   1.082       .  S
N2237      O2247   1.262       .  A
N2237      O2248   1.261   1_455  A
N2239      O2245   1.262       .  A
N2239      O2246   1.262       .  A
C2249      C2250   1.399       .  A
C2249      C2254   1.399       .  A
C2249      H2259   1.084       .  S
C2250      C2255   1.486       .  S
C2250      C2251   1.412       .  A
C2251      C2252   1.405       .  A
C2251      N2256   1.430       .  S
C2252      C2253   1.407       .  A
C2252      H2257   1.084       .  S
C2253      C2254   1.419       .  A
C2254      N2258   1.429       .  S
C2255      C2260   1.410       .  A
C2255      C2264   1.405       .  A
N2256      O2271   1.262       .  A
N2256      O2272   1.262       .  A
N2258      O2269   1.262       .  A
N2258      O2270   1.262       .  A
C2260      C2261   1.400       .  A
C2260      N2265   1.429       .  S
C2261      C2262   1.405       .  A
C2261      H2266   1.084       .  S
C2262      C2263   1.412       .  A
C2263      C2264   1.402       .  A
C2263      N2267   1.429       .  S
C2264      H2268   1.084       .  S
N2265      O2275   1.262       .  A
N2265      O2276   1.262       .  A
N2267      O2273   1.262       .  A
N2267      O2274   1.262       .  A
C2277      C2278   1.403       .  A
C2277      C2282   1.400       .  A
C2277      H2287   1.084       .  S
C2278      C2283   1.484       .  S
C2278      C2279   1.411       .  A
C2279      C2280   1.402       .  A
C2279      N2284   1.429       .  S
C2280      C2281   1.403       .  A
C2280      H2285   1.084       .  S
C2281      C2282   1.411       .  A
C2282      N2286   1.434       .  S
C2283      C2288   1.410       .  A
C2283      C2292   1.402       .  A
N2284      O2299   1.262       .  A
N2284      O2300   1.262       .  A
N2286      O2297   1.262       .  A
N2286      O2298   1.263       .  A
C2288      C2289   1.400       .  A
C2288      N2293   1.430       .  S
C2289      C2290   1.407       .  A
C2289      H2294   1.084       .  S
C2290      C2291   1.418       .  A
C2291      C2292   1.404       .  A
C2291      N2295   1.429       .  S
C2292      H2296   1.084       .  S
N2293      O2303   1.262       .  A
N2293      O2304   1.262       .  A
N2295      O2301   1.262       .  A
N2295      O2302   1.262       .  A
C2305      C2306   1.401       .  A
C2305      C2310   1.400       .  A
C2305      H2315   1.084       .  S
C2306      C2311   1.480       .  S
C2306      C2307   1.408       .  A
C2307      C2308   1.404       .  A
C2307      N2312   1.427       .  S
C2308      C2309   1.404       .  A
C2308      H2313   1.084       .  S
C2309      C2310   1.415       .  A
C2310      N2314   1.431       .  S
C2311      C2316   1.408       .  A
C2311      C2320   1.401       .  A
N2312      O2327   1.262       .  A
N2312      O2328   1.262       .  A
N2314      O2325   1.262       .  A
N2314      O2326   1.262       .  A
C2316      C2317   1.405       .  A
C2316      N2321   1.427       .  S
C2317      C2318   1.404       .  A
C2317      H2322   1.084       .  S
C2318      C2319   1.413       .  A
C2319      C2320   1.399       .  A
C2319      N2323   1.430       .  S
C2320      H2324   1.084       .  S
N2321      O2331   1.262       .  A
N2321      O2332   1.262       .  A
N2323      O2329   1.262       .  A
N2323      O2330   1.262       .  A
C2333      C2334   1.399       .  A
C2333      C2338   1.396       .  A
C2333      H2343   1.085       .  S
C2334      C2339   1.485       .  S
C2334      C2335   1.410       .  A
C2335      C2336   1.409       .  A
C2335      N2340   1.428       .  S
C2336      C2337   1.408       .  A
C2336      H2341   1.084       .  S
C2337      C2338   1.416       .  A
C2338      N2342   1.429       .  S
C2339      C2344   1.409       .  A
C2339      C2348   1.405       .  A
N2340      O2355   1.262       .  A
N2340      O2356   1.262       .  A
N2342      O2353   1.261       .  A
N2342      O2354   1.262       .  A
C2344      C2345   1.402       .  A
C2344      N2349   1.429       .  S
C2345      C2346   1.404       .  A
C2345      H2350   1.085       .  S
C2346      C2347   1.409       .  A
C2347      C2348   1.405       .  A
C2347      N2351   1.428       .  S
C2348      H2352   1.084       .  S
N2349      O2359   1.262       .  A
N2349      O2360   1.262       .  A
N2351      O2357   1.262       .  A
N2351      O2358   1.262       .  A
C2361      C2362   1.406       .  A
C2361      C2366   1.404       .  A
C2361      H2371   1.084       .  S
C2362      C2367   1.491       .  S
C2362      C2363   1.411       .  A
C2363      C2364   1.399       .  A
C2363      N2368   1.430       .  S
C2364      C2365   1.408       .  A
C2364      H2369   1.084       .  S
C2365      C2366   1.413       .  A
C2366      N2370   1.428       .  S
C2367      C2372   1.415       .  A
C2367      C2376   1.405       .  A
N2368      O2383   1.262       .  A
N2368      O2384   1.262       .  A
N2370      O2381   1.262       .  A
N2370      O2382   1.262       .  A
C2372      C2373   1.404       .  A
C2372      N2377   1.431       .  S
C2373      C2374   1.401       .  A
C2373      H2378   1.084       .  S
C2374      C2375   1.408       .  A
C2375      C2376   1.402       .  A
C2375      N2379   1.428       .  S
C2376      H2380   1.084       .  S
N2377      O2387   1.262       .  A
N2377      O2388   1.262       .  A
N2379      O2385   1.262       .  A
N2379      O2386   1.262       .  A
C2389      C2390   1.399       .  A
C2389      C2394   1.396       .  A
C2389      H2399   1.084       .  S
C2390      C2395   1.478       .  S
C2390      C2391   1.409       .  A
C2391      C2392   1.404       .  A
C2391      N2396   1.429       .  S
C2392      C2393   1.405       .  A
C2392      H2397   1.084       .  S
C2393      C2394   1.410       .  A
C2394      N2398   1.429       .  S
C2395      C2400   1.408       .  A
C2395      C2404   1.401       .  A
N2396      O2411   1.262       .  A
N2396      O2412   1.261       .  A
N2398      O2409   1.262       .  A
N2398      O2410   1.261       .  A
C2400      C2401   1.397       .  A
C2400      N2405   1.430       .  S
C2401      C2402   1.408       .  A
C2401      H2406   1.084       .  S
C2402      C2403   1.415       .  A
C2403      C2404   1.403       .  A
C2403      N2407   1.428       .  S
C2404      H2408   1.084       .  S
N2405      O2415   1.262       .  A
N2405      O2416   1.262       .  A
N2407      O2413   1.261       .  A
N2407      O2414   1.262       .  A
C2417      C2418   1.401       .  A
C2417      C2422   1.401       .  A
C2417      H2427   1.084       .  S
C2418      C2423   1.472       .  S
C2418      C2419   1.408       .  A
C2419      C2420   1.393       .  A
C2419      N2424   1.429       .  S
C2420      C2421   1.400       .  A
C2420      H2425   1.085       .  S
C2421      C2422   1.411       .  A
C2422      N2426   1.428       .  S
C2423      C2428   1.411       .  A
C2423      C2432   1.401       .  A
N2424      O2439   1.262       .  A
N2424      O2440   1.262       .  A
N2426      O2437   1.262       .  A
N2426      O2438   1.262       .  A
C2428      C2429   1.396       .  A
C2428      N2433   1.429       .  S
C2429      C2430   1.397       .  A
C2429      H2434   1.083       .  S
C2430      C2431   1.407       .  A
C2431      C2432   1.398       .  A
C2431      N2435   1.429       .  S
C2432      H2436   1.084       .  S
N2433      O2443   1.262       .  A
N2433      O2444   1.262       .  A
N2435      O2441   1.262       .  A
N2435      O2442   1.261       .  A
C2445      C2446   1.409       .  A
C2445      C2450   1.406       .  A
C2445      H2455   1.083       .  S
C2446      C2451   1.488       .  S
C2446      C2447   1.411       .  A
C2447      C2448   1.396       .  A
C2447      N2452   1.430       .  S
C2448      C2449   1.401       .  A
C2448      H2453   1.085       .  S
C2449      C2450   1.408       .  A
C2450      N2454   1.429       .  S
C2451      C2456   1.409       .  A
C2451      C2460   1.404       .  A
N2452      O2467   1.262       .  A
N2452      O2468   1.262       .  A
N2454      O2465   1.262       .  A
N2454      O2466   1.262       .  A
C2456      C2457   1.403       .  A
C2456      N2461   1.429       .  S
C2457      C2458   1.410       .  A
C2457      H2462   1.084       .  S
C2458      C2459   1.415       .  A
C2459      C2460   1.398       .  A
C2459      N2463   1.429       .  S
C2460      H2464   1.083       .  S
N2461      O2471   1.262       .  A
N2461      O2472   1.262       .  A
N2463      O2469   1.262       .  A
N2463      O2470   1.262       .  A
C2473      C2474   1.404       .  A
C2473      C2478   1.403       .  A
C2473      H2483   1.083       .  S
C2474      C2479   1.485       .  S
C2474      C2475   1.408       .  A
C2475      C2476   1.397       .  A
C2475      N2480   1.429       .  S
C2476      C2477   1.407       .  A
C2476      H2481   1.084       .  S
C2477      C2478   1.414       .  A
C2478      N2482   1.428       .  S
C2479      C2484   1.410       .  A
C2479      C2488   1.404       .  A
N2480      O2495   1.262       .  A
N2480      O2496   1.262       .  A
N2482      O2493   1.262       .  A
N2482      O2494   1.262       .  A
C2484      C2485   1.398       .  A
C2484      N2489   1.429       .  S
C2485      C2486   1.404       .  A
C2485      H2490   1.084       .  S
C2486      C2487   1.412       .  A
C2487      C2488   1.402       .  A
C2487      N2491   1.429       .  S
C2488      H2492   1.084       .  S
N2489      O2499   1.262       .  A
N2489      O2500   1.262       .  A
N2491      O2497   1.261       .  A
N2491      O2498   1.262       .  A
C2501      C2502   1.401       .  A
C2501      C2506   1.406       .  A
C2501      H2511   1.084       .  S
C2502      C2507   1.479       .  S
C2502      C2503   1.406       .  A
C2503      C2504   1.398       .  A
C2503      N2508   1.429       .  S
C2504      C2505   1.408       .  A
C2504      H2509   1.084       .  S
C2505      C2506   1.418       .  A
C2506      N2510   1.429       .  S
C2507      C2512   1.409       .  A
C2507      C2516   1.401       .  A
N2508      O2523   1.262       .  A
N2508      O2524   1.262       .  A
N2510      O2521   1.261       .  A
N2510      O2522   1.261       .  A
C2512      C2513   1.405       .  A
C2512      N2517   1.428       .  S
C2513      C2514   1.404       .  A
C2513      H2518   1.084       .  S
C2514      C2515   1.408       .  A
C2515      C2516   1.398       .  A
C2515      N2519   1.429       .  S
C2516      H2520   1.084       .  S
N2517      O2527   1.262       .  A
N2517      O2528   1.262       .  A
N2519      O2525   1.262       .  A
N2519      O2526   1.262       .  A
C2529      C2530   1.403       .  A
C2529      C2534   1.404       .  A
C2529      H2539   1.084       .  S
C2530      C2535   1.492       .  S
C2530      C2531   1.410       .  A
C2531      C2532   1.405       .  A
C2531      N2536   1.430       .  S
C2532      C2533   1.409       .  A
C2532      H2537   1.083       .  S
C2533      C2534   1.415       .  A
C2534      N2538   1.428       .  S
C2535      C2540   1.412       .  A
C2535      C2544   1.408       .  A
N2536      O2551   1.262       .  A
N2536      O2552   1.262       .  A
N2538      O2549   1.262       .  A
N2538      O2550   1.262       .  A
C2540      C2541   1.399       .  A
C2540      N2545   1.430       .  S
C2541      C2542   1.402       .  A
C2541      H2546   1.085       .  S
C2542      C2543   1.409       .  A
C2543      C2544   1.410       .  A
C2543      N2547   1.428       .  S
C2544      H2548   1.084       .  S
N2545      O2555   1.262       .  A
N2545      O2556   1.262       .  A
N2547      O2553   1.262       .  A
N2547      O2554   1.262       .  A
C2557      C2558   1.402       .  A
C2557      C2562   1.401       .  A
C2557      H2567   1.084       .  S
C2558      C2563   1.477       .  S
C2558      C2559   1.410       .  A
C2559      C2560   1.393       .  A
C2559      N2564   1.430       .  S
C2560      C2561   1.401       .  A
C2560      H2565   1.083       .  S
C2561      C2562   1.412       .  A
C2562      N2566   1.428       .  S
C2563      C2568   1.411       .  A
C2563      C2572   1.401       .  A
N2564      O2579   1.262       .  A
N2564      O2580   1.262       .  A
N2566      O2577   1.261       .  A
N2566      O2578   1.262       .  A
C2568      C2569   1.397       .  A
C2568      N2573   1.430       .  S
C2569      C2570   1.399       .  A
C2569      H2574   1.084       .  S
C2570      C2571   1.406       .  A
C2571      C2572   1.398       .  A
C2571      N2575   1.426       .  S
C2572      H2576   1.084       .  S
N2573      O2583   1.262       .  A
N2573      O2584   1.262       .  A
N2575      O2581   1.262       .  A
N2575      O2582   1.262       .  A
C2585      C2586   1.399       .  A
C2585      C2590   1.396       .  A
C2585      H2595   1.084       .  S
C2586      C2591   1.472       .  S
C2586      C2587   1.405       .  A
C2587      C2588   1.402       .  A
C2587      N2592   1.429       .  S
C2588      C2589   1.408       .  A
C2588      H2593   1.082       .  S
C2589      C2590   1.413       .  A
C2590      N2594   1.430       .  S
C2591      C2596   1.405       .  A
C2591      C2600   1.403       .  A
N2592      O2607   1.262       .  A
N2592      O2608   1.262       .  A
N2594      O2605   1.262       .  A
N2594      O2606   1.262       .  A
C2596      C2597   1.390       .  A
C2596      N2601   1.430       .  S
C2597      C2598   1.404       .  A
C2597      H2602   1.084       .  S
C2598      C2599   1.413       .  A
C2599      C2600   1.406       .  A
C2599      N2603   1.429       .  S
C2600      H2604   1.084       .  S
N2601      O2611   1.262       .  A
N2601      O2612   1.262       .  A
N2603      O2609   1.262       .  A
N2603      O2610   1.262       .  A
C2613      C2614   1.402       .  A
C2613      C2618   1.399       .  A
C2613      H2623   1.084       .  S
C2614      C2619   1.482       .  S
C2614      C2615   1.411       .  A
C2615      C2616   1.399       .  A
C2615      N2620   1.429       .  S
C2616      C2617   1.404       .  A
C2616      H2621   1.084       .  S
C2617      C2618   1.410       .  A
C2618      N2622   1.427       .  S
C2619      C2624   1.408       .  A
C2619      C2628   1.404       .  A
N2620      O2635   1.262       .  A
N2620      O2636   1.262       .  A
N2622      O2633   1.262       .  A
N2622      O2634   1.261       .  A
C2624      C2625   1.399       .  A
C2624      N2629   1.429       .  S
C2625      C2626   1.407       .  A
C2625      H2630   1.084       .  S
C2626      C2627   1.413       .  A
C2627      C2628   1.400       .  A
C2627      N2631   1.429       .  S
C2628      H2632   1.084       .  S
N2629      O2639   1.262       .  A
N2629      O2640   1.262       .  A
N2631      O2637   1.262       .  A
N2631      O2638   1.262       .  A
C2641      C2642   1.402       .  A
C2641      C2646   1.406       .  A
C2641      H2651   1.084       .  S
C2642      C2647   1.482       .  S
C2642      C2643   1.406       .  A
C2643      C2644   1.399       .  A
C2643      N2648   1.429       .  S
C2644      C2645   1.408       .  A
C2644      H2649   1.083       .  S
C2645      C2646   1.417       .  A
C2646      N2650   1.429       .  S
C2647      C2652   1.409       .  A
C2647      C2656   1.401       .  A
N2648      O2663   1.262       .  A
N2648      O2664   1.261       .  A
N2650      O2661   1.262       .  A
N2650      O2662   1.262       .  A
C2652      C2653   1.403       .  A
C2652      N2657   1.428       .  S
C2653      C2654   1.405       .  A
C2653      H2658   1.084       .  S
C2654      C2655   1.414       .  A
C2655      C2656   1.402       .  A
C2655      N2659   1.429       .  S
C2656      H2660   1.084       .  S
N2657      O2667   1.261       .  A
N2657      O2668   1.262       .  A
N2659      O2665   1.262       .  A
N2659      O2666   1.262       .  A
C2669      C2670   1.399       .  A
C2669      C2674   1.400       .  A
C2669      H2679   1.084       .  S
C2670      C2675   1.478       .  S
C2670      C2671   1.410       .  A
C2671      C2672   1.397       .  A
C2671      N2676   1.430       .  S
C2672      C2673   1.405       .  A
C2672      H2677   1.084       .  S
C2673      C2674   1.418       .  A
C2674      N2678   1.429       .  S
C2675      C2680   1.407       .  A
C2675      C2684   1.402       .  A
N2676      O2691   1.262       .  A
N2676      O2692   1.262       .  A
N2678      O2689   1.262       .  A
N2678      O2690   1.262       .  A
C2680      C2681   1.398       .  A
C2680      N2685   1.429       .  S
C2681      C2682   1.406       .  A
C2681      H2686   1.084       .  S
C2682      C2683   1.413       .  A
C2683      C2684   1.399       .  A
C2683      N2687   1.430       .  S
C2684      H2688   1.084       .  S
N2685      O2695   1.262       .  A
N2685      O2696   1.262       .  A
N2687      O2693   1.262       .  A
N2687      O2694   1.262       .  A
C2697      C2698   1.402       .  A
C2697      C2702   1.402       .  A
C2697      H2707   1.084       .  S
C2698      C2703   1.477       .  S
C2698      C2699   1.408       .  A
C2699      C2700   1.396       .  A
C2699      N2704   1.431       .  S
C2700      C2701   1.405       .  A
C2700      H2705   1.084       .  S
C2701      C2702   1.412       .  A
C2702      N2706   1.428       .  S
C2703      C2708   1.409       .  A
C2703      C2712   1.403   1_655  A
N2704      O2719   1.262       .  A
N2704      O2720   1.262       .  A
N2706      O2717   1.262       .  A
N2706      O2718   1.262       .  A
C2708      C2709   1.393   1_655  A
C2708      N2713   1.430       .  S
C2709      C2710   1.404       .  A
C2709      H2714   1.084       .  S
C2710      C2711   1.411       .  A
C2711      C2712   1.404       .  A
C2711      N2715   1.427       .  S
C2712      H2716   1.084       .  S
N2713      O2723   1.262       .  A
N2713      O2724   1.262       .  A
N2715      O2721   1.262       .  A
N2715      O2722   1.262       .  A
C2725      C2726   1.400       .  A
C2725      C2730   1.405       .  A
C2725      H2735   1.084       .  S
C2726      C2731   1.482       .  S
C2726      C2727   1.409       .  A
C2727      C2728   1.402       .  A
C2727      N2732   1.429       .  S
C2728      C2729   1.406       .  A
C2728      H2733   1.084       .  S
C2729      C2730   1.420       .  A
C2730      N2734   1.429       .  S
C2731      C2736   1.411       .  A
C2731      C2740   1.397       .  A
N2732      O2747   1.262       .  A
N2732      O2748   1.262       .  A
N2734      O2745   1.262       .  A
N2734      O2746   1.262       .  A
C2736      C2737   1.409       .  A
C2736      N2741   1.427   1_556  S
C2737      C2738   1.406       .  A
C2737      H2742   1.084       .  S
C2738      C2739   1.417       .  A
C2739      C2740   1.394       .  A
C2739      N2743   1.431       .  S
C2740      H2744   1.085       .  S
N2741      O2751   1.262       .  A
N2741      O2752   1.262       .  A
N2743      O2749   1.262       .  A
N2743      O2750   1.262       .  A
C2753      C2754   1.404       .  A
C2753      C2758   1.405       .  A
C2753      H2763   1.084       .  S
C2754      C2759   1.478       .  S
C2754      C2755   1.409       .  A
C2755      C2756   1.396       .  A
C2755      N2760   1.429       .  S
C2756      C2757   1.402       .  A
C2756      H2761   1.084       .  S
C2757      C2758   1.411       .  A
C2758      N2762   1.428       .  S
C2759      C2764   1.410       .  A
C2759      C2768   1.399       .  A
N2760      O2775   1.262       .  A
N2760      O2776   1.262       .  A
N2762      O2773   1.261       .  A
N2762      O2774   1.262       .  A
C2764      C2765   1.406       .  A
C2764      N2769   1.428       .  S
C2765      C2766   1.404       .  A
C2765      H2770   1.083       .  S
C2766      C2767   1.410       .  A
C2767      C2768   1.393       .  A
C2767      N2771   1.428       .  S
C2768      H2772   1.085       .  S
N2769      O2779   1.262       .  A
N2769      O2780   1.261       .  A
N2771      O2777   1.262       .  A
N2771      O2778   1.262       .  A
C2781      C2782   1.397       .  A
C2781      C2786   1.398       .  A
C2781      H2791   1.085       .  S
C2782      C2787   1.478       .  S
C2782      C2783   1.406       .  A
C2783      C2784   1.403       .  A
C2783      N2788   1.428       .  S
C2784      C2785   1.408       .  A
C2784      H2789   1.083       .  S
C2785      C2786   1.421       .  A
C2786      N2790   1.430       .  S
C2787      C2792   1.405       .  A
C2787      C2796   1.402       .  A
N2788      O2803   1.262       .  A
N2788      O2804   1.262       .  A
N2790      O2801   1.262       .  A
N2790      O2802   1.262       .  A
C2792      C2793   1.397       .  A
C2792      N2797   1.429       .  S
C2793      C2794   1.406       .  A
C2793      H2798   1.084       .  S
C2794      C2795   1.416       .  A
C2795      C2796   1.405       .  A
C2795      N2799   1.429       .  S
C2796      H2800   1.084       .  S
N2797      O2807   1.262       .  A
N2797      O2808   1.262       .  A
N2799      O2805   1.261       .  A
N2799      O2806   1.261       .  A
C2809      C2810   1.402       .  A
C2809      C2814   1.401       .  A
C2809      H2819   1.084       .  S
C2810      C2815   1.471       .  S
C2810      C2811   1.407       .  A
C2811      C2812   1.392       .  A
C2811      N2816   1.430       .  S
C2812      C2813   1.403       .  A
C2812      H2817   1.085       .  S
C2813      C2814   1.410       .  A
C2814      N2818   1.428       .  S
C2815      C2820   1.410       .  A
C2815      C2824   1.401       .  A
N2816      O2831   1.262       .  A
N2816      O2832   1.262       .  A
N2818      O2829   1.262       .  A
N2818      O2830   1.262       .  A
C2820      C2821   1.395       .  A
C2820      N2825   1.430       .  S
C2821      C2822   1.395       .  A
C2821      H2826   1.084       .  S
C2822      C2823   1.407       .  A
C2823      C2824   1.397       .  A
C2823      N2827   1.429       .  S
C2824      H2828   1.085       .  S
N2825      O2835   1.262       .  A
N2825      O2836   1.262       .  A
N2827      O2833   1.262       .  A
N2827      O2834   1.262       .  A
C2837      C2838   1.401       .  A
C2837      C2842   1.394       .  A
C2837      H2847   1.084       .  S
C2838      C2843   1.484       .  S
C2838      C2839   1.413       .  A
C2839      C2840   1.404       .  A
C2839      N2844   1.430       .  S
C2840      C2841   1.403       .  A
C2840      H2845   1.084       .  S
C2841      C2842   1.410       .  A
C2842      N2846   1.429       .  S
C2843      C2848   1.411       .  A
C2843      C2852   1.404       .  A
N2844      O2859   1.262       .  A
N2844      O2860   1.262       .  A
N2846      O2857   1.261       .  A
N2846      O2858   1.262       .  A
C2848      C2849   1.397       .  A
C2848      N2853   1.430       .  S
C2849      C2850   1.406       .  A
C2849      H2854   1.084       .  S
C2850      C2851   1.416       .  A
C2851      C2852   1.402       .  A
C2851      N2855   1.429       .  S
C2852      H2856   1.084       .  S
N2853      O2863   1.262       .  A
N2853      O2864   1.262       .  A
N2855      O2861   1.262       .  A
N2855      O2862   1.261       .  A
C2865      C2866   1.400       .  A
C2865      C2870   1.397       .  A
C2865      H2875   1.084       .  S
C2866      C2871   1.484   1_545  S
C2866      C2867   1.411       .  A
C2867      C2868   1.406       .  A
C2867      N2872   1.428       .  S
C2868      C2869   1.405       .  A
C2868      H2873   1.084       .  S
C2869      C2870   1.415       .  A
C2870      N2874   1.430       .  S
C2871      C2876   1.409       .  A
C2871      C2880   1.403       .  A
N2872      O2887   1.262       .  A
N2872      O2888   1.262       .  A
N2874      O2885   1.262       .  A
N2874      O2886   1.262       .  A
C2876      C2877   1.405       .  A
C2876      N2881   1.428       .  S
C2877      C2878   1.407       .  A
C2877      H2882   1.084       .  S
C2878      C2879   1.412       .  A
C2879      C2880   1.400       .  A
C2879      N2883   1.429       .  S
C2880      H2884   1.084       .  S
N2881      O2891   1.262       .  A
N2881      O2892   1.262       .  A
N2883      O2889   1.262       .  A
N2883      O2890   1.262       .  A
C2893      C2894   1.402       .  A
C2893      C2898   1.408       .  A
C2893      H2903   1.084       .  S
C2894      C2899   1.481       .  S
C2894      C2895   1.407       .  A
C2895      C2896   1.398       .  A
C2895      N2900   1.430       .  S
C2896      C2897   1.406       .  A
C2896      H2901   1.084       .  S
C2897      C2898   1.416       .  A
C2898      N2902   1.429       .  S
C2899      C2904   1.411       .  A
C2899      C2908   1.401       .  A
N2900      O2915   1.262       .  A
N2900      O2916   1.262       .  A
N2902      O2913   1.261       .  A
N2902      O2914   1.262       .  A
C2904      C2905   1.404       .  A
C2904      N2909   1.429       .  S
C2905      C2906   1.403       .  A
C2905      H2910   1.084       .  S
C2906      C2907   1.409       .  A
C2907      C2908   1.400       .  A
C2907      N2911   1.429       .  S
C2908      H2912   1.084       .  S
N2909      O2919   1.261       .  A
N2909      O2920   1.262       .  A
N2911      O2917   1.261       .  A
N2911      O2918   1.262       .  A
C2921      C2922   1.400       .  A
C2921      C2926   1.389       .  A
C2921      H2931   1.085       .  S
C2922      C2927   1.482       .  S
C2922      C2923   1.412       .  A
C2923      C2924   1.407       .  A
C2923      N2928   1.428       .  S
C2924      C2925   1.404       .  A
C2924      H2929   1.084       .  S
C2925      C2926   1.412       .  A
C2926      N2930   1.431       .  S
C2927      C2932   1.412       .  A
C2927      C2936   1.403       .  A
N2928      O2943   1.262       .  A
N2928      O2944   1.262       .  A
N2930      O2941   1.262       .  A
N2930      O2942   1.262       .  A
C2932      C2933   1.404       .  A
C2932      N2937   1.430       .  S
C2933      C2934   1.402       .  A
C2933      H2938   1.081       .  S
C2934      C2935   1.405       .  A
C2935      C2936   1.398       .  A
C2935      N2939   1.426       .  S
C2936      H2940   1.084       .  S
N2937      O2947   1.262       .  A
N2937      O2948   1.262       .  A
N2939      O2945   1.261       .  A
N2939      O2946   1.262       .  A
C2949      C2950   1.403       .  A
C2949      C2954   1.409       .  A
C2949      H2959   1.084       .  S
C2950      C2955   1.489       .  S
C2950      C2951   1.408       .  A
C2951      C2952   1.406       .  A
C2951      N2956   1.430       .  S
C2952      C2953   1.408       .  A
C2952      H2957   1.084       .  S
C2953      C2954   1.412       .  A
C2954      N2958   1.426       .  S
C2955      C2960   1.409       .  A
C2955      C2964   1.399       .  A
N2956      O2971   1.262       .  A
N2956      O2972   1.262       .  A
N2958      O2969   1.262       .  A
N2958      O2970   1.262       .  A
C2960      C2961   1.409       .  A
C2960      N2965   1.427       .  S
C2961      C2962   1.408       .  A
C2961      H2966   1.083       .  S
C2962      C2963   1.421       .  A
C2963      C2964   1.400       .  A
C2963      N2967   1.430       .  S
C2964      H2968   1.084       .  S
N2965      O2975   1.262       .  A
N2965      O2976   1.262       .  A
N2967      O2973   1.262       .  A
N2967      O2974   1.262       .  A
C2977      C2978   1.406       .  A
C2977      C2982   1.414       .  A
C2977      H2987   1.084       .  S
C2978      C2983   1.493       .  S
C2978      C2979   1.406       .  A
C2979      C2980   1.400       .  A
C2979      N2984   1.429       .  S
C2980      C2981   1.411       .  A
C2980      H2985   1.083       .  S
C2981      C2982   1.418       .  A
C2982      N2986   1.428       .  S
C2983      C2988   1.411       .  A
C2983      C2992   1.406       .  A
N2984      O2999   1.262       .  A
N2984      O3000   1.262       .  A
N2986      O2997   1.262       .  A
N2986      O2998   1.262       .  A
C2988      C2989   1.405       .  A
C2988      N2993   1.428       .  S
C2989      C2990   1.403       .  A
C2989      H2994   1.084       .  S
C2990      C2991   1.410       .  A
C2991      C2992   1.407       .  A
C2991      N2995   1.430       .  S
C2992      H2996   1.084       .  S
N2993      O3003   1.262       .  A
N2993      O3004   1.261       .  A
N2995      O3001   1.262       .  A
N2995      O3002   1.262       .  A
C3005      C3006   1.402       .  A
C3005      C3010   1.401       .  A
C3005      H3015   1.084       .  S
C3006      C3011   1.479       .  S
C3006      C3007   1.408       .  A
C3007      C3008   1.399       .  A
C3007      N3012   1.429       .  S
C3008      C3009   1.403       .  A
C3008      H3013   1.084       .  S
C3009      C3010   1.410       .  A
C3010      N3014   1.426       .  S
C3011      C3016   1.407       .  A
C3011      C3020   1.404       .  A
N3012      O3027   1.262       .  A
N3012      O3028   1.262       .  A
N3014      O3025   1.261       .  A
N3014      O3026   1.262       .  A
C3016      C3017   1.391       .  A
C3016      N3021   1.430       .  S
C3017      C3018   1.405       .  A
C3017      H3022   1.084       .  S
C3018      C3019   1.412       .  A
C3019      C3020   1.407       .  A
C3019      N3023   1.427       .  S
C3020      H3024   1.084       .  S
N3021      O3031   1.262       .  A
N3021      O3032   1.262       .  A
N3023      O3029   1.262       .  A
N3023      O3030   1.262       .  A
C3033      C3034   1.401       .  A
C3033      C3038   1.395       .  A
C3033      H3043   1.085       .  S
C3034      C3039   1.476       .  S
C3034      C3035   1.408       .  A
C3035      C3036   1.402       .  A
C3035      N3040   1.429       .  S
C3036      C3037   1.406       .  A
C3036      H3041   1.084       .  S
C3037      C3038   1.410       .  A
C3038      N3042   1.429       .  S
C3039      C3044   1.407       .  A
C3039      C3048   1.402       .  A
N3040      O3055   1.262       .  A
N3040      O3056   1.262       .  A
N3042      O3053   1.262       .  A
N3042      O3054   1.262       .  A
C3044      C3045   1.404       .  A
C3044      N3049   1.430       .  S
C3045      C3046   1.407       .  A
C3045      H3050   1.016       .  S
C3046      C3047   1.410       .  A
C3047      C3048   1.401       .  A
C3047      N3051   1.427       .  S
C3048      H3052   1.072       .  S
N3049      O3059   1.262       .  A
N3049      O3060   1.261       .  A
N3051      O3057   1.262       .  A
N3051      O3058   1.261       .  A
C3061      C3062   1.405       .  A
C3061      C3066   1.411       .  A
C3061      H3071   1.083       .  S
C3062      C3067   1.483       .  S
C3062      C3063   1.406       .  A
C3063      C3064   1.396       .  A
C3063      N3068   1.429       .  S
C3064      C3065   1.403       .  A
C3064      H3069   1.084       .  S
C3065      C3066   1.415       .  A
C3066      N3070   1.430       .  S
C3067      C3072   1.410       .  A
C3067      C3076   1.401       .  A
N3068      O3083   1.262       .  A
N3068      O3084   1.262       .  A
N3070      O3081   1.262       .  A
N3070      O3082   1.261       .  A
C3072      C3073   1.408       .  A
C3072      N3077   1.428   1_556  S
C3073      C3074   1.406       .  A
C3073      H3078   1.084       .  S
C3074      C3075   1.409       .  A
C3075      C3076   1.398       .  A
C3075      N3079   1.429       .  S
C3076      H3080   1.084       .  S
N3077      O3087   1.262       .  A
N3077      O3088   1.262       .  A
N3079      O3085   1.261       .  A
N3079      O3086   1.262       .  A
C3089      C3090   1.402       .  A
C3089      C3094   1.401       .  A
C3089      H3099   1.084       .  S
C3090      C3095   1.482       .  S
C3090      C3091   1.413       .  A
C3091      C3092   1.403       .  A
C3091      N3096   1.429       .  S
C3092      C3093   1.401       .  A
C3092      H3097   1.084       .  S
C3093      C3094   1.408       .  A
C3094      N3098   1.429       .  S
C3095      C3100   1.407       .  A
C3095      C3104   1.401       .  A
N3096      O3111   1.262       .  A
N3096      O3112   1.262       .  A
N3098      O3109   1.262   1_556  A
N3098      O3110   1.261       .  A
C3100      C3101   1.402       .  A
C3100      N3105   1.429       .  S
C3101      C3102   1.409       .  A
C3101      H3106   1.083       .  S
C3102      C3103   1.416       .  A
C3103      C3104   1.400       .  A
C3103      N3107   1.429       .  S
C3104      H3108   1.084       .  S
N3105      O3115   1.262       .  A
N3105      O3116   1.262       .  A
N3107      O3113   1.262       .  A
N3107      O3114   1.262       .  A
C3117      C3118   1.404       .  A
C3117      C3122   1.405       .  A
C3117      H3127   1.084       .  S
C3118      C3123   1.482       .  S
C3118      C3119   1.409       .  A
C3119      C3120   1.399       .  A
C3119      N3124   1.429       .  S
C3120      C3121   1.403       .  A
C3120      H3125   1.084       .  S
C3121      C3122   1.413       .  A
C3122      N3126   1.429       .  S
C3123      C3128   1.409       .  A
C3123      C3132   1.400       .  A
N3124      O3139   1.262       .  A
N3124      O3140   1.262       .  A
N3126      O3137   1.262       .  A
N3126      O3138   1.262       .  A
C3128      C3129   1.403       .  A
C3128      N3133   1.428       .  S
C3129      C3130   1.406       .  A
C3129      H3134   1.084       .  S
C3130      C3131   1.416       .  A
C3131      C3132   1.399       .  A
C3131      N3135   1.429       .  S
C3132      H3136   1.084       .  S
N3133      O3143   1.262       .  A
N3133      O3144   1.262       .  A
N3135      O3141   1.262       .  A
N3135      O3142   1.262       .  A
C3145      C3146   1.398       .  A
C3145      C3150   1.396       .  A
C3145      H3155   1.084       .  S
C3146      C3151   1.470       .  S
C3146      C3147   1.406       .  A
C3147      C3148   1.395       .  A
C3147      N3152   1.429       .  S
C3148      C3149   1.406       .  A
C3148      H3153   1.084       .  S
C3149      C3150   1.417       .  A
C3150      N3154   1.430       .  S
C3151      C3156   1.406       .  A
C3151      C3160   1.396       .  A
N3152      O3167   1.262       .  A
N3152      O3168   1.262       .  A
N3154      O3165   1.261       .  A
N3154      O3166   1.262       .  A
C3156      C3157   1.397       .  A
C3156      N3161   1.429       .  S
C3157      C3158   1.406       .  A
C3157      H3162   1.084       .  S
C3158      C3159   1.418       .  A
C3159      C3160   1.396       .  A
C3159      N3163   1.429       .  S
C3160      H3164   1.084       .  S
N3161      O3171   1.262       .  A
N3161      O3172   1.262       .  A
N3163      O3169   1.262       .  A
N3163      O3170   1.262       .  A
C3173      C3174   1.400   1_455  A
C3173      C3178   1.397       .  A
C3173      H3183   1.084   1_455  S
C3174      C3179   1.477       .  S
C3174      C3175   1.409       .  A
C3175      C3176   1.398   1_655  A
C3175      N3180   1.430       .  S
C3176      C3177   1.406       .  A
C3176      H3181   1.084       .  S
C3177      C3178   1.416       .  A
C3178      N3182   1.429       .  S
C3179      C3184   1.411       .  A
C3179      C3188   1.402       .  A
N3180      O3195   1.262       .  A
N3180      O3196   1.262       .  A
N3182      O3193   1.262       .  A
N3182      O3194   1.262       .  A
C3184      C3185   1.399       .  A
C3184      N3189   1.429       .  S
C3185      C3186   1.401       .  A
C3185      H3190   1.084       .  S
C3186      C3187   1.408       .  A
C3187      C3188   1.395       .  A
C3187      N3191   1.429       .  S
C3188      H3192   1.084       .  S
N3189      O3199   1.262       .  A
N3189      O3200   1.262       .  A
N3191      O3197   1.262       .  A
N3191      O3198   1.262       .  A
C3201      C3202   1.406       .  A
C3201      C3206   1.403       .  A
C3201      H3211   1.083       .  S
C3202      C3207   1.488       .  S
C3202      C3203   1.410       .  A
C3203      C3204   1.399       .  A
C3203      N3208   1.429       .  S
C3204      C3205   1.404       .  A
C3204      H3209   1.083       .  S
C3205      C3206   1.410       .  A
C3206      N3210   1.429       .  S
C3207      C3212   1.408       .  A
C3207      C3216   1.406       .  A
N3208      O3223   1.262       .  A
N3208      O3224   1.262       .  A
N3210      O3221   1.262       .  A
N3210      O3222   1.262       .  A
C3212      C3213   1.397       .  A
C3212      N3217   1.429       .  S
C3213      C3214   1.408       .  A
C3213      H3218   1.084       .  S
C3214      C3215   1.413       .  A
C3215      C3216   1.405       .  A
C3215      N3219   1.428       .  S
C3216      H3220   1.084       .  S
N3217      O3227   1.262       .  A
N3217      O3228   1.262       .  A
N3219      O3225   1.262       .  A
N3219      O3226   1.262       .  A
C3229      C3230   1.402       .  A
C3229      C3234   1.405       .  A
C3229      H3239   1.084       .  S
C3230      C3235   1.480       .  S
C3230      C3231   1.408       .  A
C3231      C3232   1.393       .  A
C3231      N3236   1.430       .  S
C3232      C3233   1.407       .  A
C3232      H3237   1.083       .  S
C3233      C3234   1.416       .  A
C3234      N3238   1.428       .  S
C3235      C3240   1.411       .  A
C3235      C3244   1.399       .  A
N3236      O3251   1.262       .  A
N3236      O3252   1.262       .  A
N3238      O3249   1.262   1_545  A
N3238      O3250   1.262       .  A
C3240      C3241   1.405       .  A
C3240      N3245   1.427       .  S
C3241      C3242   1.401       .  A
C3241      H3246   1.084       .  S
C3242      C3243   1.410       .  A
C3243      C3244   1.394       .  A
C3243      N3247   1.429       .  S
C3244      H3248   1.084       .  S
N3245      O3255   1.261       .  A
N3245      O3256   1.262       .  A
N3247      O3253   1.262       .  A
N3247      O3254   1.262       .  A
C3257      C3258   1.400       .  A
C3257      C3262   1.399       .  A
C3257      H3267   1.084       .  S
C3258      C3263   1.482       .  S
C3258      C3259   1.411       .  A
C3259      C3260   1.401       .  A
C3259      N3264   1.428       .  S
C3260      C3261   1.403       .  A
C3260      H3265   1.084       .  S
C3261      C3262   1.416       .  A
C3262      N3266   1.430       .  S
C3263      C3268   1.411       .  A
C3263      C3272   1.401       .  A
N3264      O3279   1.262       .  A
N3264      O3280   1.262       .  A
N3266      O3277   1.262   1_554  A
N3266      O3278   1.262   1_554  A
C3268      C3269   1.400       .  A
C3268      N3273   1.429       .  S
C3269      C3270   1.403       .  A
C3269      H3274   1.084       .  S
C3270      C3271   1.414       .  A
C3271      C3272   1.400       .  A
C3271      N3275   1.429       .  S
C3272      H3276   1.084       .  S
N3273      O3283   1.262       .  A
N3273      O3284   1.262       .  A
N3275      O3281   1.262       .  A
N3275      O3282   1.262       .  A
C3285      C3286   1.398       .  A
C3285      C3290   1.395       .  A
C3285      H3295   1.084       .  S
C3286      C3291   1.474       .  S
C3286      C3287   1.406       .  A
C3287      C3288   1.406       .  A
C3287      N3292   1.428       .  S
C3288      C3289   1.407       .  A
C3288      H3293   1.084       .  S
C3289      C3290   1.411       .  A
C3290      N3294   1.429       .  S
C3291      C3296   1.407       .  A
C3291      C3300   1.401       .  A
N3292      O3307   1.262       .  A
N3292      O3308   1.262       .  A
N3294      O3305   1.262       .  A
N3294      O3306   1.261       .  A
C3296      C3297   1.393       .  A
C3296      N3301   1.430       .  S
C3297      C3298   1.402       .  A
C3297      H3302   1.085       .  S
C3298      C3299   1.413       .  A
C3299      C3300   1.405       .  A
C3299      N3303   1.428       .  S
C3300      H3304   1.084       .  S
N3301      O3311   1.262       .  A
N3301      O3312   1.262       .  A
N3303      O3309   1.262       .  A
N3303      O3310   1.262       .  A
C3313      C3314   1.398       .  A
C3313      C3318   1.390       .  A
C3313      H3323   1.085       .  S
C3314      C3319   1.476       .  S
C3314      C3315   1.407       .  A
C3315      C3316   1.404       .  A
C3315      N3320   1.427       .  S
C3316      C3317   1.408       .  A
C3316      H3321   1.084       .  S
C3317      C3318   1.417       .  A
C3318      N3322   1.430       .  S
C3319      C3324   1.408       .  A
C3319      C3328   1.403       .  A
N3320      O3335   1.262       .  A
N3320      O3336   1.262       .  A
N3322      O3333   1.262       .  A
N3322      O3334   1.262       .  A
C3324      C3325   1.391       .  A
C3324      N3329   1.430       .  S
C3325      C3326   1.403       .  A
C3325      H3330   1.084       .  S
C3326      C3327   1.413       .  A
C3327      C3328   1.406       .  A
C3327      N3331   1.428       .  S
C3328      H3332   1.084       .  S
N3329      O3339   1.262       .  A
N3329      O3340   1.261       .  A
N3331      O3337   1.262       .  A
N3331      O3338   1.262       .  A
C3341      C3342   1.405       .  A
C3341      C3346   1.409       .  A
C3341      H3351   1.083       .  S
C3342      C3347   1.486       .  S
C3342      C3343   1.408       .  A
C3343      C3344   1.392       .  A
C3343      N3348   1.430       .  S
C3344      C3345   1.407       .  A
C3344      H3349   1.083       .  S
C3345      C3346   1.417       .  A
C3346      N3350   1.428       .  S
C3347      C3352   1.412       .  A
C3347      C3356   1.403       .  A
N3348      O3363   1.262       .  A
N3348      O3364   1.262       .  A
N3350      O3361   1.262       .  A
N3350      O3362   1.262       .  A
C3352      C3353   1.405       .  A
C3352      N3357   1.428       .  S
C3353      C3354   1.403       .  A
C3353      H3358   1.084       .  S
C3354      C3355   1.408       .  A
C3355      C3356   1.397       .  A
C3355      N3359   1.429       .  S
C3356      H3360   1.084       .  S
N3357      O3367   1.262       .  A
N3357      O3368   1.262       .  A
N3359      O3365   1.262       .  A
N3359      O3366   1.262       .  A
C3369      C3370   1.404       .  A
C3369      C3374   1.399       .  A
C3369      H3379   1.084       .  S
C3370      C3375   1.496       .  S
C3370      C3371   1.415       .  A
C3371      C3372   1.410       .  A
C3371      N3376   1.428       .  S
C3372      C3373   1.407       .  A
C3372      H3377   1.084       .  S
C3373      C3374   1.414       .  A
C3374      N3378   1.429       .  S
C3375      C3380   1.413       .  A
C3375      C3384   1.404       .  A
N3376      O3391   1.262       .  A
N3376      O3392   1.262       .  A
N3378      O3389   1.262       .  A
N3378      O3390   1.262       .  A
C3380      C3381   1.410       .  A
C3380      N3385   1.428       .  S
C3381      C3382   1.409       .  A
C3381      H3386   1.084       .  S
C3382      C3383   1.414       .  A
C3383      C3384   1.400       .  A
C3383      N3387   1.429       .  S
C3384      H3388   1.084       .  S
N3385      O3395   1.262       .  A
N3385      O3396   1.262       .  A
N3387      O3393   1.262       .  A
N3387      O3394   1.262       .  A
C3397      C3398   1.408       .  A
C3397      C3402   1.403       .  A
C3397      H3407   1.083       .  S
C3398      C3403   1.489       .  S
C3398      C3399   1.410       .  A
C3399      C3400   1.398       .  A
C3399      N3404   1.430       .  S
C3400      C3401   1.404       .  A
C3400      H3405   1.084       .  S
C3401      C3402   1.408       .  A
C3402      N3406   1.428       .  S
C3403      C3408   1.409       .  A
C3403      C3412   1.407       .  A
N3404      O3419   1.262       .  A
N3404      O3420   1.262       .  A
N3406      O3417   1.262       .  A
N3406      O3418   1.262       .  A
C3408      C3409   1.396       .  A
C3408      N3413   1.429       .  S
C3409      C3410   1.406       .  A
C3409      H3414   1.084       .  S
C3410      C3411   1.413       .  A
C3411      C3412   1.405       .  A
C3411      N3415   1.429       .  S
C3412      H3416   1.083       .  S
N3413      O3423   1.262       .  A
N3413      O3424   1.262       .  A
N3415      O3421   1.262       .  A
N3415      O3422   1.262       .  A
C3425      C3426   1.402       .  A
C3425      C3430   1.398       .  A
C3425      H3435   1.084       .  S
C3426      C3431   1.480       .  S
C3426      C3427   1.408       .  A
C3427      C3428   1.400       .  A
C3427      N3432   1.429       .  S
C3428      C3429   1.407       .  A
C3428      H3433   1.084       .  S
C3429      C3430   1.413       .  A
C3430      N3434   1.429       .  S
C3431      C3436   1.410       .  A
C3431      C3440   1.403       .  A
N3432      O3447   1.262       .  A
N3432      O3448   1.262       .  A
N3434      O3445   1.262       .  A
N3434      O3446   1.261       .  A
C3436      C3437   1.396       .  A
C3436      N3441   1.430       .  S
C3437      C3438   1.406       .  A
C3437      H3442   1.084       .  S
C3438      C3439   1.413       .  A
C3439      C3440   1.401       .  A
C3439      N3443   1.429       .  S
C3440      H3444   1.084       .  S
N3441      O3451   1.262       .  A
N3441      O3452   1.262       .  A
N3443      O3449   1.262       .  A
N3443      O3450   1.261       .  A
C3453      C3454   1.399       .  A
C3453      C3458   1.396       .  A
C3453      H3463   1.084       .  S
C3454      C3459   1.480       .  S
C3454      C3455   1.410       .  A
C3455      C3456   1.405       .  A
C3455      N3460   1.428       .  S
C3456      C3457   1.403       .  A
C3456      H3461   1.084       .  S
C3457      C3458   1.412       .  A
C3458      N3462   1.429       .  S
C3459      C3464   1.410       .  A
C3459      C3468   1.405       .  A
N3460      O3475   1.262       .  A
N3460      O3476   1.262       .  A
N3462      O3473   1.262       .  A
N3462      O3474   1.262       .  A
C3464      C3465   1.399       .  A
C3464      N3469   1.429       .  S
C3465      C3466   1.401       .  A
C3465      H3470   1.085       .  S
C3466      C3467   1.408       .  A
C3467      C3468   1.404       .  A
C3467      N3471   1.428       .  S
C3468      H3472   1.084       .  S
N3469      O3479   1.262       .  A
N3469      O3480   1.261       .  A
N3471      O3477   1.261       .  A
N3471      O3478   1.262       .  A
C3481      C3482   1.401       .  A
C3481      C3486   1.397       .  A
C3481      H3491   1.084       .  S
C3482      C3487   1.478       .  S
C3482      C3483   1.411       .  A
C3483      C3484   1.403       .  A
C3483      N3488   1.429       .  S
C3484      C3485   1.402       .  A
C3484      H3489   1.082       .  S
C3485      C3486   1.408       .  A
C3486      N3490   1.428       .  S
C3487      C3492   1.408       .  A
C3487      C3496   1.403       .  A
N3488      O3503   1.262       .  A
N3488      O3504   1.262       .  A
N3490      O3501   1.262       .  A
N3490      O3502   1.262       .  A
C3492      C3493   1.391       .  A
C3492      N3497   1.430       .  S
C3493      C3494   1.402       .  A
C3493      H3498   1.084       .  S
C3494      C3495   1.415       .  A
C3495      C3496   1.407       .  A
C3495      N3499   1.429       .  S
C3496      H3500   1.084       .  S
N3497      O3507   1.262       .  A
N3497      O3508   1.262       .  A
N3499      O3505   1.262       .  A
N3499      O3506   1.262       .  A
C3509      C3510   1.403       .  A
C3509      C3514   1.403       .  A
C3509      H3519   1.084       .  S
C3510      C3515   1.481       .  S
C3510      C3511   1.408       .  A
C3511      C3512   1.400       .  A
C3511      N3516   1.429       .  S
C3512      C3513   1.406       .  A
C3512      H3517   1.084       .  S
C3513      C3514   1.413       .  A
C3514      N3518   1.429       .  S
C3515      C3520   1.410       .  A
C3515      C3524   1.398       .  A
N3516      O3531   1.262       .  A
N3516      O3532   1.261       .  A
N3518      O3529   1.262       .  A
N3518      O3530   1.262       .  A
C3520      C3521   1.404       .  A
C3520      N3525   1.429       .  S
C3521      C3522   1.406       .  A
C3521      H3526   1.084       .  S
C3522      C3523   1.419       .  A
C3523      C3524   1.399       .  A
C3523      N3527   1.429       .  S
C3524      H3528   1.084       .  S
N3525      O3535   1.262       .  A
N3525      O3536   1.262       .  A
N3527      O3533   1.262       .  A
N3527      O3534   1.262       .  A
C3537      C3538   1.404       .  A
C3537      C3542   1.403       .  A
C3537      H3547   1.084       .  S
C3538      C3543   1.472       .  S
C3538      C3539   1.407       .  A
C3539      C3540   1.395       .  A
C3539      N3544   1.429       .  S
C3540      C3541   1.401       .  A
C3540      H3545   1.084       .  S
C3541      C3542   1.409       .  A
C3542      N3546   1.429       .  S
C3543      C3548   1.407       .  A
C3543      C3552   1.397       .  A
N3544      O3559   1.262       .  A
N3544      O3560   1.262       .  A
N3546      O3557   1.261       .  A
N3546      O3558   1.261       .  A
C3548      C3549   1.404       .  A
C3548      N3553   1.428       .  S
C3549      C3550   1.404       .  A
C3549      H3554   1.082       .  S
C3550      C3551   1.414       .  A
C3551      C3552   1.392       .  A
C3551      N3555   1.430       .  S
C3552      H3556   1.085       .  S
N3553      O3563   1.262       .  A
N3553      O3564   1.262       .  A
N3555      O3561   1.262       .  A
N3555      O3562   1.261       .  A
C3565      C3566   1.402       .  A
C3565      C3570   1.395       .  A
C3565      H3575   1.083       .  S
C3566      C3571   1.494       .  S
C3566      C3567   1.415       .  A
C3567      C3568   1.409       .  A
C3567      N3572   1.428       .  S
C3568      C3569   1.404       .  A
C3568      H3573   1.084       .  S
C3569      C3570   1.410       .  A
C3570      N3574   1.428       .  S
C3571      C3576   1.415       .  A
C3571      C3580   1.408       .  A
N3572      O3587   1.262       .  A
N3572      O3588   1.262       .  A
N3574      O3585   1.262       .  A
N3574      O3586   1.262       .  A
C3576      C3577   1.398       .  A
C3576      N3581   1.430       .  S
C3577      C3578   1.399       .  A
C3577      H3582   1.085       .  S
C3578      C3579   1.410       .  A
C3579      C3580   1.406       .  A
C3579      N3583   1.429       .  S
C3580      H3584   1.083       .  S
N3581      O3591   1.262       .  A
N3581      O3592   1.261       .  A
N3583      O3589   1.262       .  A
N3583      O3590   1.262       .  A
C3593      C3594   1.406       .  A
C3593      C3598   1.410       .  A
C3593      H3603   1.085       .  S
C3594      C3599   1.481       .  S
C3594      C3595   1.405       .  A
C3595      C3596   1.394       .  A
C3595      N3600   1.430       .  S
C3596      C3597   1.404       .  A
C3596      H3601   1.083       .  S
C3597      C3598   1.414       .  A
C3598      N3602   1.428       .  S
C3599      C3604   1.410       .  A
C3599      C3608   1.397       .  A
N3600      O3615   1.262       .  A
N3600      O3616   1.261       .  A
N3602      O3613   1.262       .  A
N3602      O3614   1.261       .  A
C3604      C3605   1.408       .  A
C3604      N3609   1.427       .  S
C3605      C3606   1.406       .  A
C3605      H3610   1.084       .  S
C3606      C3607   1.419       .  A
C3607      C3608   1.395       .  A
C3607      N3611   1.431       .  S
C3608      H3612   1.085       .  S
N3609      O3619   1.262       .  A
N3609      O3620   1.262       .  A
N3611      O3617   1.261       .  A
N3611      O3618   1.262       .  A
C3621      C3622   1.405       .  A
C3621      C3626   1.410       .  A
C3621      H3631   1.084       .  S
C3622      C3627   1.491       .  S
C3622      C3623   1.408       .  A
C3623      C3624   1.401       .  A
C3623      N3628   1.428       .  S
C3624      C3625   1.405       .  A
C3624      H3629   1.084       .  S
C3625      C3626   1.414       .  A
C3626      N3630   1.428       .  S
C3627      C3632   1.409       .  A
C3627      C3636   1.404       .  A
N3628      O3643   1.262       .  A
N3628      O3644   1.261       .  A
N3630      O3641   1.261       .  A
N3630      O3642   1.262       .  A
C3632      C3633   1.402       .  A
C3632      N3637   1.428       .  S
C3633      C3634   1.406       .  A
C3633      H3638   1.084       .  S
C3634      C3635   1.416       .  A
C3635      C3636   1.407       .  A
C3635      N3639   1.429       .  S
C3636      H3640   1.084       .  S
N3637      O3647   1.262       .  A
N3637      O3648   1.262       .  A
N3639      O3645   1.261       .  A
N3639      O3646   1.261       .  A
C3649      C3650   1.400       .  A
C3649      C3654   1.399       .  A
C3649      H3659   1.084       .  S
C3650      C3655   1.474       .  S
C3650      C3651   1.405       .  A
C3651      C3652   1.396       .  A
C3651      N3656   1.429       .  S
C3652      C3653   1.407       .  A
C3652      H3657   1.084       .  S
C3653      C3654   1.416       .  A
C3654      N3658   1.429       .  S
C3655      C3660   1.406       .  A
C3655      C3664   1.399       .  A
N3656      O3671   1.262       .  A
N3656      O3672   1.262       .  A
N3658      O3669   1.262       .  A
N3658      O3670   1.262       .  A
C3660      C3661   1.397       .  A
C3660      N3665   1.429       .  S
C3661      C3662   1.407       .  A
C3661      H3666   1.084       .  S
C3662      C3663   1.417       .  A
C3663      C3664   1.398       .  A
C3663      N3667   1.429       .  S
C3664      H3668   1.084       .  S
N3665      O3675   1.262       .  A
N3665      O3676   1.262       .  A
N3667      O3673   1.262       .  A
N3667      O3674   1.262       .  A
C3677      C3678   1.403       .  A
C3677      C3682   1.408       .  A
C3677      H3687   1.084       .  S
C3678      C3683   1.479       .  S
C3678      C3679   1.406       .  A
C3679      C3680   1.393       .  A
C3679      N3684   1.430       .  S
C3680      C3681   1.407       .  A
C3680      H3685   1.084       .  S
C3681      C3682   1.417       .  A
C3682      N3686   1.428       .  S
C3683      C3688   1.408       .  A
C3683      C3692   1.403       .  A
N3684      O3699   1.262       .  A
N3684      O3700   1.262       .  A
N3686      O3697   1.262       .  A
N3686      O3698   1.262       .  A
C3688      C3689   1.398       .  A
C3688      N3693   1.429       .  S
C3689      C3690   1.403       .  A
C3689      H3694   1.083       .  S
C3690      C3691   1.411       .  A
C3691      C3692   1.403       .  A
C3691      N3695   1.429       .  S
C3692      H3696   1.084       .  S
N3693      O3703   1.262       .  A
N3693      O3704   1.261       .  A
N3695      O3701   1.262       .  A
N3695      O3702   1.262       .  A
C3705      C3706   1.400       .  A
C3705      C3710   1.400       .  A
C3705      H3715   1.084       .  S
C3706      C3711   1.479       .  S
C3706      C3707   1.409       .  A
C3707      C3708   1.400       .  A
C3707      N3712   1.430       .  S
C3708      C3709   1.408       .  A
C3708      H3713   1.084       .  S
C3709      C3710   1.418       .  A
C3710      N3714   1.429       .  S
C3711      C3716   1.408       .  A
C3711      C3720   1.400       .  A
N3712      O3727   1.262       .  A
N3712      O3728   1.262       .  A
N3714      O3725   1.262       .  A
N3714      O3726   1.262       .  A
C3716      C3717   1.403       .  A
C3716      N3721   1.429       .  S
C3717      C3718   1.408       .  A
C3717      H3722   1.084       .  S
C3718      C3719   1.415       .  A
C3719      C3720   1.397       .  A
C3719      N3723   1.430       .  S
C3720      H3724   1.084       .  S
N3721      O3731   1.262       .  A
N3721      O3732   1.262       .  A
N3723      O3729   1.262       .  A
N3723      O3730   1.262       .  A
C3733      C3734   1.402       .  A
C3733      C3738   1.398       .  A
C3733      H3743   1.084       .  S
C3734      C3739   1.477       .  S
C3734      C3735   1.409       .  A
C3735      C3736   1.399       .  A
C3735      N3740   1.428       .  S
C3736      C3737   1.399       .  A
C3736      H3741   1.084       .  S
C3737      C3738   1.408       .  A
C3738      N3742   1.429       .  S
C3739      C3744   1.406       .  A
C3739      C3748   1.402       .  A
N3740      O3755   1.262       .  A
N3740      O3756   1.262       .  A
N3742      O3753   1.262       .  A
N3742      O3754   1.262       .  A
C3744      C3745   1.391       .  A
C3744      N3749   1.430       .  S
C3745      C3746   1.406       .  A
C3745      H3750   1.084       .  S
C3746      C3747   1.416       .  A
C3747      C3748   1.407       .  A
C3747      N3751   1.428       .  S
C3748      H3752   1.084       .  S
N3749      O3759   1.262       .  A
N3749      O3760   1.262       .  A
N3751      O3757   1.262       .  A
N3751      O3758   1.262       .  A
C3761      C3762   1.399       .  A
C3761      C3766   1.396       .  A
C3761      H3771   1.084       .  S
C3762      C3767   1.479       .  S
C3762      C3763   1.409       .  A
C3763      C3764   1.407       .  A
C3763      N3768   1.428       .  S
C3764      C3765   1.406       .  A
C3764      H3769   1.084       .  S
C3765      C3766   1.413       .  A
C3766      N3770   1.430       .  S
C3767      C3772   1.407       .  A
C3767      C3776   1.401       .  A
N3768      O3783   1.262       .  A
N3768      O3784   1.262       .  A
N3770      O3781   1.262       .  A
N3770      O3782   1.262       .  A
C3772      C3773   1.399       .  A
C3772      N3777   1.429       .  S
C3773      C3774   1.407       .  A
C3773      H3778   1.084       .  S
C3774      C3775   1.418       .  A
C3775      C3776   1.404       .  A
C3775      N3779   1.429       .  S
C3776      H3780   1.084       .  S
N3777      O3787   1.262       .  A
N3777      O3788   1.262       .  A
N3779      O3785   1.262       .  A
N3779      O3786   1.262       .  A
C3789      C3790   1.401       .  A
C3789      C3794   1.404       .  A
C3789      H3799   1.084       .  S
C3790      C3795   1.478   1_545  S
C3790      C3791   1.406       .  A
C3791      C3792   1.399       .  A
C3791      N3796   1.429   1_545  S
C3792      C3793   1.408       .  A
C3792      H3797   1.084       .  S
C3793      C3794   1.418       .  A
C3794      N3798   1.429       .  S
C3795      C3800   1.407       .  A
C3795      C3804   1.400       .  A
N3796      O3811   1.262       .  A
N3796      O3812   1.262       .  A
N3798      O3809   1.262       .  A
N3798      O3810   1.262       .  A
C3800      C3801   1.401       .  A
C3800      N3805   1.428       .  S
C3801      C3802   1.407       .  A
C3801      H3806   1.084       .  S
C3802      C3803   1.416       .  A
C3803      C3804   1.399       .  A
C3803      N3807   1.429       .  S
C3804      H3808   1.084       .  S
N3805      O3815   1.262       .  A
N3805      O3816   1.262       .  A
N3807      O3813   1.262       .  A
N3807      O3814   1.262       .  A
