geometry optimzed in LAMMPS
_audit_creation_date              2020-12-01 
_audit_creation_method            'lammps2cif' 
_symmetry_space_group_name_H-M    'P1' 
_symmetry_Int_Tables_number       1 
_symmetry_cell_setting            triclinic 
loop_ 
_symmetry_equiv_pos_as_xyz 
  x,y,z 
_cell_length_a                    31.17360541 
_cell_length_b                    30.881321167185288 
_cell_length_c                    57.07725731585151 
_cell_angle_alpha                 90.77196206010693 
_cell_angle_beta                  89.17198328915515 
_cell_angle_gamma                 119.44624004781136 
loop_ 
_atom_site_label 
_atom_site_type_symbol 
_atom_site_fract_x 
_atom_site_fract_y 
_atom_site_fract_z 
_atom_site_charge 
O1          O  0.00323791  0.37920087  0.67483525    -0.88500
C2          C  0.01470127  0.41855322  0.74394059     0.87500
Mg3        Mg  0.97236921  0.40661791  0.64908923     1.58100
O4          O  0.91583239  0.29907952  0.72807447    -0.88200
O5          O  0.99051786  0.30721794  0.68671086    -0.75600
C6          C  0.78468098  0.40790722  0.71045853     0.92600
O7          O  0.02829728  0.48757902  0.69377761    -0.75400
O8          O  0.80970185  0.43397231  0.69275404    -0.82900
Mg9        Mg  0.05990024  0.43497136  0.69724652     1.58000
C10         C  0.77900313  0.25505945  0.75748920     0.92500
O11         O  0.11142430  0.40200040  0.70601880    -0.81100
H12         H  0.89065815  0.23273671  0.71237421    -0.06500
C13         C  0.89137690  0.41313413  0.73730608     0.87500
O14         O  0.89500193  0.34080177  0.65298383    -0.75600
O15         O  0.01264491  0.39525502  0.72588793    -0.88400
O16         O  0.82256991  0.26807831  0.76407941    -0.81200
C17         C  0.97338042  0.30777740  0.78385401     0.92600
C18         C  0.11007139  0.36967720  0.72021329     0.92500
Mg19       Mg  0.81871539  0.31992200  0.71074196     1.58000
O20         O  0.78786333  0.37037154  0.71651349    -0.81100
O21         O  0.84849111  0.26505494  0.70700966    -0.75400
O22         O  0.99740516  0.31839175  0.76487535    -0.81200
O23         O  0.10485096  0.46925597  0.66488975    -0.82900
O24         O  0.87722017  0.44178065  0.63902281    -0.81300
C25         C  0.88520974  0.26416437  0.71598837     0.86900
O26         O  0.85992328  0.36057932  0.68144229    -0.88400
O27         O  0.87719738  0.36845741  0.73359554    -0.88500
O28         O  0.89857215  0.44354506  0.72086614    -0.75600
Mg29       Mg  0.99119795  0.31644683  0.72644498     1.58000
O30         O  0.92927729  0.29964537  0.78493256    -0.82900
H31         H  0.99876548  0.32678337  0.65246752    -0.06700
O32         O  0.95870873  0.44918046  0.67516551    -0.88200
H33         H  0.98825402  0.52035903  0.68499168    -0.06500
H34         H  0.82289318  0.29948927  0.66181648    -0.06700
C35         C  0.99161099  0.48714243  0.68432369     0.86900
C36         C  0.99827785  0.33778871  0.67048505     0.87500
C37         C  0.85743466  0.33300540  0.66501566     0.87500
H38         H  0.89928895  0.42709515  0.75509234    -0.06600
O39         O  0.97812043  0.40312579  0.75786334    -0.75700
Mg40       Mg  0.88625742  0.43953843  0.68096654     1.58000
H41         H  0.04803230  0.45282571  0.74785810    -0.06700
C42         C  0.09424162  0.47805300  0.64466550     0.92500
O43         O  0.93870935  0.43361967  0.62227879    -0.82900
C44         C  0.90261895  0.44199551  0.62082796     0.92600
O45         O  0.06968572  0.33474434  0.72784487    -0.82900
Mg46       Mg  0.90074976  0.33368011  0.75823611     1.58200
O47         O  0.05085087  0.46863638  0.63916635    -0.81200
O48         O  0.77025446  0.27381926  0.73990473    -0.82900
O49         O  0.00392286  0.67718938  0.47417315    -0.88500
C50         C  0.02353957  0.66031464  0.40436278     0.87500
Mg51       Mg  0.97725716  0.61702202  0.49922635     1.58100
O52         O  0.91591022  0.66637401  0.42053960    -0.88200
O53         O  0.98436493  0.73248950  0.46312562    -0.75600
C54         C  0.80358752  0.42384223  0.43470522     0.92600
O55         O  0.03883236  0.60329269  0.45226689    -0.75400
O56         O  0.82831893  0.42384659  0.45260383    -0.82900
Mg57       Mg  0.06372382  0.68632462  0.45101326     1.58000
C58         C  0.78487719  0.56470997  0.38899361     0.92500
O59         O  0.10795585  0.77248916  0.44542861    -0.81100
H60         H  0.88317448  0.70007081  0.43707927    -0.06500
C61         C  0.90654825  0.53331267  0.40963227     0.87500
O62         O  0.89711278  0.59774565  0.49502493    -0.75600
O63         O  0.01735984  0.67839915  0.42260667    -0.88400
O64         O  0.82778841  0.59898736  0.38331384    -0.81200
C65         C  0.97329982  0.72286496  0.36549005     0.92600
C66         C  0.10533325  0.80426020  0.43226036     0.92500
Mg67       Mg  0.82593366  0.54259537  0.43612122     1.58000
O68         O  0.80308554  0.46309751  0.42912459    -0.81100
O69         O  0.84746006  0.62506033  0.44101837    -0.75400
O70         O  0.99638267  0.73826767  0.38450709    -0.81200
O71         O  0.10903049  0.69581792  0.48224474    -0.82900
O72         O  0.88898921  0.48455073  0.50700424    -0.81300
C73         C  0.88223133  0.66542550  0.43275213     0.86900
O74         O  0.86745652  0.54541838  0.46554805    -0.88400
O75         O  0.88841097  0.56048329  0.41387423    -0.88500
O76         O  0.91536369  0.51049737  0.42566095    -0.75600
Mg77       Mg  0.98849757  0.72973428  0.42315201     1.58000
O78         O  0.93201764  0.68307082  0.36437777    -0.82900
H79         H  0.99156751  0.71932218  0.49717364    -0.06700
O80         O  0.97004547  0.56453098  0.47218168    -0.88200
H81         H  0.00542101  0.52983789  0.45978507    -0.06500
H82         H  0.82533543  0.56314191  0.48565996    -0.06700
C83         C  0.00489933  0.56444951  0.46174478     0.86900
C84         C  0.99390213  0.71029146  0.47900561     0.87500
C85         C  0.86150184  0.56751342  0.48240836     0.87500
H86         H  0.91650952  0.52995202  0.39175424    -0.06600
O87         O  0.98832250  0.63634090  0.39035708    -0.75700
Mg88       Mg  0.90061328  0.49839839  0.46540994     1.58000
H89         H  0.05931934  0.66425634  0.40045856    -0.06700
C90         C  0.10179481  0.67626024  0.50240855     0.92500
O91         O  0.94597482  0.55370243  0.52551335    -0.82900
C92         C  0.91117822  0.50848724  0.52581571     0.92600
O93         O  0.06490346  0.79585365  0.42337965    -0.82900
Mg94       Mg  0.90797829  0.61972423  0.39002913     1.58200
O95         O  0.05915549  0.64217455  0.50923798    -0.81200
O96         O  0.77719244  0.53726998  0.40657657    -0.82900
O97         O  0.69952552  0.13064164  0.06935281    -0.88500
C98         C  0.77362741  0.09681909  0.11699813     0.87500
Mg99       Mg  0.67549983  0.18254337  0.07425920     1.58100
O100        O  0.64627845  0.02337533  0.10958199    -0.88200
O101        O  0.66927063  0.05467709  0.05652137    -0.75600
C102        C  0.60186386  0.15519862  0.18791523     0.92600
O103        O  0.77826053  0.20676640  0.10571998    -0.75400
O104        O  0.61176583  0.18776850  0.17195000    -0.82900
Mg105      Mg  0.77513032  0.15452468  0.07606668     1.58000
C106        C  0.57255184  0.96127369  0.17294860     0.92500
O107        O  0.77559708  0.10614626  0.04489737    -0.81100
H108        H  0.58615344  0.97070071  0.09238972    -0.06500
C109        C  0.69233671  0.11673095  0.16276888     0.87500
O110        O  0.59980242  0.12241467  0.08773654    -0.75600
O111        O  0.74972762  0.09423287  0.09936714    -0.88400
O112        O  0.59128260  0.95849544  0.15358251    -0.81200
C113        C  0.70679101  0.94951012  0.11515784     0.92600
C114        C  0.77017334  0.06281046  0.04130834     0.92500
Mg115      Mg  0.58493754  0.06017878  0.15105323     1.58000
O116        O  0.59584918  0.11213251  0.18292943    -0.81100
O117        O  0.57045230  0.00518203  0.11929289    -0.75400
O118        O  0.73499029  0.99196392  0.10704447    -0.81200
O119        O  0.80274555  0.22066456  0.05247281    -0.82900
O120        O  0.62017519  0.23349331  0.11444592    -0.81300
C121        C  0.60025454  0.99820121  0.10628732     0.86900
O122        O  0.60297045  0.11886642  0.12615636    -0.88400
O123        O  0.66058181  0.07850104  0.15294443    -0.87300
O124        O  0.69570055  0.15920165  0.15948060    -0.75600
Mg125      Mg  0.70119617  0.02478214  0.08352667     1.58000
O126        O  0.67614950  0.94511952  0.13112837    -0.82900
H127        H  0.65885902  0.10682926  0.04030354    -0.06700
O128        O  0.70411845  0.19843694  0.10898152    -0.88200
H129        H  0.76119328  0.24829231  0.12770173    -0.06500
H130        H  0.54076733  0.07900582  0.10827268    -0.06700
C131        C  0.74823552  0.21949984  0.11438874     0.86900
C132        C  0.67556132  0.09821193  0.05466944     0.87500
C133        C  0.57949600  0.10633532  0.10762401     0.87500
H134        H  0.71783335  0.11405738  0.17450019    -0.06600
O135        O  0.75270388  0.07081247  0.13512392    -0.75700
Mg136      Mg  0.65615605  0.19284480  0.13751185     1.58000
H137        H  0.81307382  0.12126604  0.11694080    -0.06700
C138        C  0.78897588  0.25297564  0.05067283     0.92500
O139        O  0.64742670  0.23419587  0.07797775    -0.82900
C140        C  0.62502250  0.24695116  0.09273221     0.92600
O141        O  0.75766620  0.03175678  0.05773432    -0.82900
Mg142      Mg  0.67063133  0.01483199  0.14400489     1.58200
O143        O  0.74764972  0.24602720  0.05860729    -0.81200
O144        O  0.56674102  0.99838654  0.17762012    -0.82900
O145        O  0.40221072  0.06905531  0.34696843    -0.88500
C146        C  0.43061924  0.04896690  0.41417386     0.87500
Mg147      Mg  0.45704267  0.09422332  0.31923527     1.58100
O148        O  0.42594116  0.15927778  0.40285622    -0.88200
O149        O  0.35208800  0.09201917  0.36228205    -0.75600
C150        C  0.66181172  0.27372667  0.37422793     0.92600
O151        O  0.47626601  0.03233484  0.36285699    -0.75400
O152        O  0.65619894  0.24666588  0.35589260    -0.82900
Mg153      Mg  0.39421794  0.00776573  0.36819233     1.58000
C154        C  0.53144676  0.29085695  0.43260447     0.92500
O155        O  0.30902959  0.96694094  0.37697534    -0.81100
H156        H  0.39023111  0.19320454  0.39076385    -0.06500
C157        C  0.55957456  0.16890618  0.40463489     0.87500
O158        O  0.47792816  0.17572004  0.32481135    -0.75600
O159        O  0.40837542  0.05484663  0.39792077    -0.88400
O160        O  0.49923277  0.24710167  0.43852203    -0.81200
C161        C  0.37767241  0.10456200  0.45915274     0.92600
C162        C  0.28096217  0.97150261  0.39226926     0.92500
Mg163      Mg  0.54505722  0.24964094  0.38247491     1.58000
O164        O  0.62552016  0.27446331  0.38403341    -0.81100
O165        O  0.46327035  0.22855358  0.38279387    -0.75400
O166        O  0.35798811  0.08115256  0.44048470    -0.81200
O167        O  0.37904763  0.96060823  0.33584928    -0.82900
O168        O  0.58594931  0.18164435  0.30448556    -0.81300
C169        C  0.42497096  0.19368348  0.39240950     0.86900
O170        O  0.53552586  0.20685394  0.35147748    -0.88400
O171        O  0.53148545  0.18643747  0.40311884    -0.88500
O172        O  0.57858048  0.15973719  0.38666331    -0.75600
Mg173      Mg  0.36107538  0.08778228  0.40168416     1.58000
O174        O  0.41990519  0.14325537  0.45912553    -0.82900
H175        H  0.35844869  0.08378459  0.32729642    -0.06700
O176        O  0.51339825  0.10166857  0.34300130    -0.88200
H177        H  0.54809508  0.06521524  0.35289291    -0.06500
H178        H  0.51378082  0.24849867  0.33426362    -0.06700
C179        C  0.51399278  0.06635157  0.35258643     0.86900
C180        C  0.37012324  0.08098365  0.34469803     0.87500
C181        C  0.51016969  0.21214845  0.33653867     0.87500
H182        H  0.56719041  0.15987889  0.42175745    -0.06600
O183        O  0.45891166  0.08496706  0.42727415    -0.75700
Mg184      Mg  0.58081754  0.17238740  0.34677807     1.58000
H185        H  0.42689052  0.01269206  0.41691069    -0.06700
C186        C  0.39736887  0.96848409  0.31523398     0.92500
O187        O  0.51368177  0.12288882  0.28978861    -0.82900
C188        C  0.55808885  0.15760966  0.28696409     0.92600
O189        O  0.29359334  0.01264824  0.40250228    -0.82900
Mg190      Mg  0.47729993  0.16646661  0.43012306     1.58200
O191        O  0.43053156  0.01165064  0.30845883    -0.81200
O192        O  0.55623067  0.29925155  0.41377728    -0.82900
O193        O  0.60621662  0.71451548  0.24013598    -0.88500
C194        C  0.71630929  0.77079925  0.28819235     0.87500
Mg195      Mg  0.53248326  0.69483589  0.24542081     1.58100
O196        O  0.65698467  0.64390994  0.27224161    -0.88200
O197        O  0.64752233  0.68282249  0.22324524    -0.75600
C198        C  0.48242575  0.59750330  0.35587446     0.92600
O199        O  0.61455573  0.78825797  0.28159795    -0.75400
O200        O  0.46279786  0.61637516  0.34255991    -0.82900
Mg201      Mg  0.66110853  0.78737198  0.25035913     1.58000
C202        C  0.63483202  0.55709925  0.32969903     0.92500
O203        O  0.70617684  0.78939436  0.21739926    -0.81100
H204        H  0.63495267  0.58708815  0.24945516    -0.06500
C205        C  0.61009633  0.68622063  0.33090344     0.87500
O206        O  0.51090544  0.61443943  0.25411375    -0.75600
O207        O  0.69148348  0.75118719  0.27051714    -0.88400
O208        O  0.65226488  0.57540288  0.30990423    -0.81200
C209        C  0.78418686  0.68985310  0.27732259     0.92600
C210        C  0.74190224  0.78134117  0.21297013     0.92500
Mg211      Mg  0.55196579  0.57995222  0.31296032     1.58000
O212        O  0.51448839  0.58680486  0.34755338    -0.81100
O213        O  0.58914510  0.57217693  0.27777296    -0.75400
O214        O  0.77428754  0.72387735  0.27299330    -0.81200
O215        O  0.62693268  0.82497515  0.22999610    -0.82900
O216        O  0.42598006  0.63721940  0.28413699    -0.81300
C217        C  0.62755347  0.60092323  0.26563803     0.86900
O218        O  0.51392693  0.60728926  0.29233404    -0.88400
O219        O  0.61386448  0.65703402  0.31622753    -0.88500
O220        O  0.57332811  0.69387584  0.33059406    -0.75600
Mg221      Mg  0.70830115  0.70325330  0.25014808     1.58000
O222        O  0.75632847  0.65625284  0.29164583    -0.82900
H223        H  0.58780718  0.68133183  0.20866618    -0.06700
O224        O  0.54555338  0.71627703  0.28152214    -0.88200
H225        H  0.55743580  0.77121675  0.30396534    -0.06500
H226        H  0.48859404  0.54893453  0.27053272    -0.06700
C227        C  0.57133317  0.75906613  0.28931522     0.86900
C228        C  0.61269696  0.69277201  0.22333194     0.87500
C229        C  0.50294053  0.58855311  0.27246908     0.87500
H230        H  0.63865703  0.70527744  0.34374733    -0.06600
O231        O  0.72159099  0.74447905  0.30367509    -0.75700
Mg232      Mg  0.50113226  0.66411016  0.30819711     1.58000
H233        H  0.73463118  0.81077406  0.29026336    -0.06700
C234        C  0.58211884  0.81375183  0.22742742     0.92500
O235        O  0.45480205  0.67142167  0.24907979    -0.82900
C236        C  0.41900210  0.64698383  0.26285550     0.92600
O237        O  0.76019033  0.76772587  0.22890704    -0.82900
Mg238      Mg  0.68628410  0.65843632  0.30628738     1.58200
O239        O  0.54660600  0.77180056  0.23369226    -0.81200
O240        O  0.59347266  0.55219388  0.33594279    -0.82900
O241        O  0.35584362  0.46600074  0.57912250    -0.88500
C242        C  0.30546380  0.34627801  0.53719942     0.87500
Mg243      Mg  0.36539889  0.53810161  0.57036148     1.58100
O244        O  0.43125926  0.42628428  0.54919867    -0.88200
O245        O  0.39367429  0.43760931  0.60048907    -0.75600
C246        C  0.45902312  0.57253919  0.45935741     0.92600
O247        O  0.27779743  0.44084732  0.53825223    -0.75400
O248        O  0.44173205  0.59381365  0.47308090    -0.82900
Mg249      Mg  0.28154085  0.40237683  0.57175985     1.58000
C250        C  0.52010585  0.43677838  0.49075501     0.92500
O251        O  0.27818389  0.36013125  0.60591676    -0.81100
H252        H  0.49175275  0.44952166  0.56958960    -0.06500
C253        C  0.38250216  0.44543455  0.48894787     0.87500
O254        O  0.44738709  0.56727544  0.56106384    -0.75600
O255        O  0.32239230  0.37360591  0.55462131    -0.88400
O256        O  0.50157772  0.42043984  0.51075802    -0.81200
C257        C  0.39407439  0.29269947  0.55093888     0.92600
C258        C  0.29274649  0.33029603  0.61283875     0.92500
Mg259      Mg  0.48613632  0.51489832  0.50385723     1.58000
O260        O  0.47208525  0.54251012  0.46781610    -0.81100
O261        O  0.50375090  0.48981118  0.53970059    -0.75400
O262        O  0.36051683  0.30263754  0.55604048    -0.81200
O263        O  0.23930213  0.43577577  0.58956492    -0.82900
O264        O  0.42078946  0.63531434  0.52970362    -0.81300
C265        C  0.47635223  0.45485171  0.55375639     0.86900
O266        O  0.45356708  0.55068327  0.52393964    -0.88400
O267        O  0.41587060  0.44818787  0.50161485    -0.88500
O268        O  0.37083522  0.47990474  0.48856878    -0.75600
Mg269      Mg  0.37856847  0.37300544  0.57569880     1.58000
O270        O  0.42621433  0.31951308  0.53574280    -0.82900
H271        H  0.38379814  0.49527563  0.61103837    -0.06700
O272        O  0.34505410  0.51394630  0.53529689    -0.88200
H273        H  0.28940730  0.49065236  0.51276828    -0.06500
H274        H  0.51249438  0.58869373  0.54423386    -0.06700
C275        C  0.30350786  0.48276959  0.52837746     0.86900
C276        C  0.37742870  0.46739821  0.59781918     0.87500
C277        C  0.47281481  0.57004782  0.54289056     0.87500
H278        H  0.36298936  0.41319297  0.47774599    -0.06600
O279        O  0.33362319  0.34387938  0.52141253    -0.75700
Mg280      Mg  0.39554227  0.55669909  0.50773526     1.58000
H281        H  0.26598740  0.32373500  0.53541675    -0.06700
C282        C  0.24690983  0.48020422  0.58988935     0.92500
O283        O  0.37492202  0.61047408  0.56240058    -0.82900
C284        C  0.40624290  0.64475139  0.54960776     0.92600
O285        O  0.32423476  0.32384102  0.60132831    -0.82900
Mg286      Mg  0.41881810  0.38383951  0.51658735     1.58200
O287        O  0.28682599  0.51656880  0.58233801    -0.81200
O288        O  0.51954426  0.47479192  0.48287699    -0.82900
O289        O  0.13140416  0.46389063  0.90338514    -0.88500
C290        C  0.08603284  0.34685356  0.94716416     0.87500
Mg291      Mg  0.18265924  0.53744511  0.91157024     1.58100
O292        O  0.01776688  0.40733937  0.93871243    -0.88200
O293        O  0.05957944  0.42347584  0.88711865    -0.75600
C294        C  0.13230187  0.56898429  0.02483406     0.92600
O295        O  0.19815473  0.45020432  0.94121186    -0.75400
O296        O  0.16962857  0.58968505  0.01087939    -0.82900
Mg297      Mg  0.15232602  0.40872416  0.90905726     1.58000
C298        C  0.94096700  0.41057041  0.99919098     0.92500
O299        O  0.11050932  0.36770799  0.87533919    -0.81100
H300        H  0.97067931  0.42105734  0.92009598    -0.06500
C301        C  0.09706255  0.44097090  0.99617090     0.87500
O302        O  0.12198230  0.55451171  0.92377411    -0.75600
O303        O  0.08785264  0.37174949  0.92995204    -0.88400
O304        O  0.94389529  0.39231317  0.97967515    -0.81200
C305        C  0.93993845  0.27248052  0.93866599     0.92600
C306        C  0.06820252  0.33132945  0.87030287     0.92500
Mg307      Mg  0.04584443  0.49822928  0.98338951     1.58000
O308        O  0.09033668  0.53502540  0.01746099    -0.81100
O309        O  0.99915000  0.46525188  0.94907179    -0.75400
O310        O  0.98349936  0.28612525  0.93227067    -0.81200
O311        O  0.22249302  0.44928922  0.88816915    -0.82900
O312        O  0.22838646  0.63606872  0.95551540    -0.81300
C313        C  0.99453055  0.43059483  0.93509148     0.86900
O314        O  0.11026450  0.54129355  0.96174087    -0.88400
O315        O  0.06202952  0.43824040  0.98494943    -0.88500
O316        O  0.14023700  0.47887469  0.99492190    -0.75600
Mg317      Mg  0.02325485  0.35711333  0.91176260     1.58000
O318        O  0.93343426  0.29716567  0.95497825    -0.82900
H319        H  0.11521280  0.48786734  0.87417128    -0.06700
O320        O  0.19044896  0.51688926  0.94623622    -0.88200
H321        H  0.23493800  0.50315849  0.96587543    -0.06500
H322        H  0.07616942  0.56982001  0.94330449    -0.06700
C323        C  0.20940767  0.49123702  0.95145944     0.86900
C324        C  0.10304603  0.45974751  0.88757311     0.87500
C325        C  0.10243578  0.55653559  0.94319177     0.87500
H326        H  0.09093297  0.41042834  0.00734920    -0.06600
O327        O  0.05658974  0.33993895  0.96428182    -0.75700
Mg328      Mg  0.18047618  0.55556383  0.97560626     1.58000
H329        H  0.10955672  0.33029307  0.94759516    -0.06700
C330        C  0.25522692  0.49498109  0.88831402     0.92500
O331        O  0.23428705  0.61465522  0.91856160    -0.82900
C332        C  0.24565650  0.64738983  0.93433368     0.92600
O333        O  0.03521940  0.31070095  0.88585876    -0.82900
Mg334      Mg  0.00053958  0.36790022  0.97187232     1.58200
O335        O  0.24740714  0.52860292  0.89712140    -0.81200
O336        O  0.97705329  0.45114009  0.00649012    -0.82900
O337        O  0.13355902  0.71139352  0.24765273    -0.88500
C338        C  0.08200535  0.77522196  0.20222214     0.87500
Mg339      Mg  0.18766426  0.69175841  0.23996492     1.58100
O340        O  0.01402300  0.64689749  0.21339665    -0.88200
O341        O  0.06054782  0.67767432  0.26353556    -0.75600
C342        C  0.13807656  0.60524636  0.12718633     0.92600
O343        O  0.19797037  0.78947688  0.20821239    -0.75400
O344        O  0.17601205  0.62107362  0.14050981    -0.82900
Mg345      Mg  0.15041088  0.78539897  0.24007861     1.58000
C346        C  0.94470847  0.56263843  0.15477351     0.92500
O347        O  0.10721075  0.78686188  0.27364328    -0.81100
H348        H  0.97686354  0.58805298  0.23431257    -0.06500
C349        C  0.10017889  0.69388671  0.15525889     0.87500
O350        O  0.12963076  0.61261038  0.22902864    -0.75600
O351        O  0.08605368  0.75292968  0.21915118    -0.88400
O352        O  0.94635600  0.58459293  0.17390563    -0.81200
C353        C  0.93591393  0.69789914  0.21337419     0.92600
C354        C  0.06406784  0.78060461  0.27746493     0.92500
Mg355      Mg  0.05218602  0.58541509  0.17033737     1.58000
O356        O  0.09614094  0.59504655  0.13592166    -0.81100
O357        O  0.00725297  0.57398362  0.20533429    -0.75400
O358        O  0.98008659  0.72986172  0.21674870    -0.81200
O359        O  0.22030172  0.81929150  0.26079961    -0.82900
O360        O  0.23546134  0.63689798  0.19736944    -0.81300
C361        C  0.99860042  0.60273241  0.21851881     0.86900
O362        O  0.11740131  0.61025324  0.19098793    -0.88400
O363        O  0.06664602  0.66286791  0.16870443    -0.88500
O364        O  0.14402491  0.70045408  0.15564471    -0.75600
Mg365      Mg  0.02189907  0.70331545  0.23801209     1.58000
O366        O  0.92772979  0.66583013  0.19739048    -0.82900
H367        H  0.11766566  0.67307520  0.27752816    -0.06700
O368        O  0.19444130  0.71676122  0.20462059    -0.88200
H369        H  0.23718014  0.77430695  0.18405375    -0.06500
H370        H  0.08594073  0.54944802  0.21086545    -0.06700
C371        C  0.21143567  0.76062901  0.19859821     0.86900
C372        C  0.10493242  0.68718466  0.26358979     0.87500
C373        C  0.11073638  0.58910271  0.21007911     0.87500
H374        H  0.09161351  0.71548666  0.14337918    -0.06600
O375        O  0.05095824  0.75173568  0.18611642    -0.75700
Mg376      Mg  0.18621748  0.66690413  0.17593715     1.58000
H377        H  0.10438088  0.81524254  0.20132287    -0.06700
C378        C  0.25482137  0.80867386  0.26172060     0.92500
O379        O  0.24173155  0.66822499  0.23350614    -0.82900
C380        C  0.25306854  0.64505073  0.21848372     0.92600
O381        O  0.03187649  0.76356207  0.26170979    -0.82900
Mg382      Mg  0.99823628  0.66665755  0.18063062     1.58200
O383        O  0.25015607  0.76782289  0.25367229    -0.81200
O384        O  0.98219612  0.55964717  0.14789985    -0.82900
O385        O  0.65301064  0.00825363  0.84500776    -0.88500
C386        C  0.63121311  0.02392800  0.91438956     0.87500
Mg387      Mg  0.59433209  0.97908827  0.81950680     1.58100
O388        O  0.64382715  0.91956162  0.89716405    -0.88200
O389        O  0.71018997  0.99203202  0.85576710    -0.75600
C390        C  0.40461879  0.79550459  0.88077441     0.92600
O391        O  0.57509734  0.03696412  0.86620301    -0.75400
O392        O  0.40530963  0.82012367  0.86258927    -0.82900
Mg393      Mg  0.65842229  0.06706965  0.86829344     1.58000
C394        C  0.55107800  0.78489863  0.92653716     0.92500
O395        O  0.74407425  0.11558282  0.87525702    -0.81100
H396        H  0.68101334  0.89026111  0.88085742    -0.06500
C397        C  0.50842185  0.90091100  0.90730924     0.87500
O398        O  0.57985973  0.89950091  0.82300309    -0.75600
O399        O  0.65166364  0.02022148  0.89642588    -0.88400
O400        O  0.58200490  0.82913930  0.93244992    -0.81200
C401        C  0.69620314  0.97635215  0.95312734     0.92600
C402        C  0.77553028  0.11261323  0.88837745     0.92500
Mg403      Mg  0.52394378  0.82380468  0.88076564     1.58000
O404        O  0.44359514  0.79634735  0.88748526    -0.81100
O405        O  0.60692066  0.85038853  0.87641308    -0.75400
O406        O  0.71146074  0.99941746  0.93408875    -0.81200
O407        O  0.66625474  0.11264775  0.83706665    -0.82900
O408        O  0.46536553  0.88497260  0.80919162    -0.81300
C409        C  0.64553081  0.88689870  0.88494495     0.86900
O410        O  0.52578326  0.86541231  0.85142166    -0.88400
O411        O  0.53777006  0.88551142  0.90315468    -0.88500
O412        O  0.48527258  0.90860962  0.89114002    -0.75600
Mg413      Mg  0.70467464  0.99361793  0.89560557     1.58000
O414        O  0.65748983  0.93411217  0.95418116    -0.82900
H415        H  0.69770165  0.00079863  0.82184260    -0.06700
O416        O  0.54025632  0.96768146  0.84593175    -0.88200
H417        H  0.50240393  0.99972188  0.85843056    -0.06500
H418        H  0.54822698  0.82662455  0.83144393    -0.06700
C419        C  0.53777100  0.00144407  0.85655716     0.86900
C420        C  0.68764008  0.00111152  0.84002227     0.87500
C421        C  0.55012626  0.86202900  0.83491794     0.87500
H422        H  0.50326545  0.90933821  0.92522237    -0.06600
O423        O  0.60741636  0.98707049  0.92774946    -0.75700
Mg424      Mg  0.47664773  0.89551304  0.85117909     1.58000
H425        H  0.63270389  0.05890876  0.91852465    -0.06700
C426        C  0.64546751  0.10352291  0.81719252     0.92500
O427        O  0.53351937  0.94689576  0.79246618    -0.82900
C428        C  0.48974240  0.91030221  0.79106756     0.92600
O429        O  0.76784934  0.07128476  0.89632594    -0.82900
Mg430      Mg  0.59596353  0.90777332  0.92745941     1.58200
O431        O  0.61334275  0.05969758  0.81062694    -0.81200
O432        O  0.52131949  0.77487391  0.90986319    -0.82900
O433        O  0.35496288  0.93955775  0.57499073    -0.88500
C434        C  0.29479026  0.99329493  0.62250832     0.87500
Mg435      Mg  0.36993100  0.88184565  0.58044330     1.58100
O436        O  0.42252536  0.05509407  0.61103498    -0.88200
O437        O  0.39142613  0.01351426  0.56000253    -0.75600
C438        C  0.44971169  0.91470808  0.69239457     0.92600
O439        O  0.27375179  0.87392859  0.61307749    -0.75400
O440        O  0.43540667  0.87889564  0.67738875    -0.82900
Mg441      Mg  0.28234497  0.92557606  0.58260535     1.58000
C442        C  0.49854272  0.11360413  0.67165185     0.92500
O443        O  0.28827988  0.97378619  0.55037535    -0.81100
H444        H  0.48253031  0.09029460  0.59052969    -0.06500
C445        C  0.36963327  0.96365643  0.66739517     0.87500
O446        O  0.44916372  0.93601471  0.59181446    -0.75600
O447        O  0.31647772  0.98867165  0.60514553    -0.88400
O448        O  0.48544110  0.11509275  0.65107705    -0.81200
C449        C  0.38155758  0.14069600  0.61469962     0.92600
C450        C  0.29772570  0.01854583  0.54748701     0.92500
Mg451      Mg  0.47627358  0.00776942  0.65294305     1.58000
O452        O  0.46150652  0.95874614  0.68592956    -0.81100
O453        O  0.49214278  0.05641191  0.61887971    -0.75400
O454        O  0.34711207  0.09732199  0.61102138    -0.81200
O455        O  0.24641648  0.85668913  0.55981805    -0.82900
O456        O  0.41898598  0.82591940  0.61952690    -0.81300
C457        C  0.46601504  0.06796522  0.60594667     0.86900
O458        O  0.45137221  0.94428264  0.63023098    -0.88400
O459        O  0.40056097  0.99631208  0.65362692    -0.88500
O460        O  0.36110308  0.91869814  0.66638613    -0.75600
Mg461      Mg  0.36882066  0.05342394  0.58735908     1.58000
O462        O  0.41168851  0.14583332  0.63065296    -0.82900
H463        H  0.39271005  0.95439081  0.54473406    -0.06700
O464        O  0.34393594  0.87336005  0.61577919    -0.88200
H465        H  0.28529938  0.83093901  0.63587505    -0.06500
H466        H  0.51208088  0.97540886  0.61021282    -0.06700
C467        C  0.30048742  0.85783271  0.62191850     0.86900
C468        C  0.37993436  0.96812933  0.55921576     0.87500
C469        C  0.47249526  0.95204931  0.61093456     0.87500
H470        H  0.35000934  0.97389907  0.68006245    -0.06600
O471        O  0.31881276  0.02283155  0.63919962    -0.75700
Mg472      Mg  0.39151603  0.87531172  0.64342204     1.58000
H473        H  0.25500125  0.97292726  0.62328197    -0.06700
C474        C  0.25543660  0.82084363  0.55801456     0.92500
O475        O  0.38807878  0.82357629  0.58424438    -0.82900
C476        C  0.41041775  0.81002601  0.59802059     0.92600
O477        O  0.31002227  0.04836530  0.56459707    -0.82900
Mg478      Mg  0.40371771  0.07018929  0.64466217     1.58200
O479        O  0.29443665  0.82330750  0.56609311    -0.81200
O480        O  0.49970532  0.07513659  0.67833835    -0.82900
O481        O  0.69321718  0.66948633  0.01585463    -0.88500
C482        C  0.64377009  0.63981690  0.08297981     0.87500
Mg483      Mg  0.66407611  0.61406524  0.98835067     1.58100
O484        O  0.75779313  0.64411746  0.07038786    -0.88200
O485        O  0.76533936  0.71970639  0.03035415    -0.75600
C486        C  0.63355298  0.40725082  0.04233617     0.92600
O487        O  0.58340827  0.59447540  0.03266549    -0.75400
O488        O  0.61455209  0.41260557  0.02345018    -0.82900
Mg489      Mg  0.63983573  0.67686201  0.03791020     1.58000
C490        C  0.78337348  0.53869566  0.09908081     0.92500
O491        O  0.68184265  0.76260112  0.04746565    -0.81100
H492        H  0.82675270  0.67951163  0.05772479    -0.06500
C493        C  0.63504766  0.51127949  0.07259021     0.87500
O494        O  0.72427464  0.59297607  0.99253536    -0.75600
O495        O  0.67202263  0.66167751  0.06654986    -0.88400
O496        O  0.77155262  0.57117030  0.10517171    -0.81200
C497        C  0.74622117  0.69170680  0.12699935     0.92600
C498        C  0.71302369  0.78920564  0.06315822     0.92500
Mg499      Mg  0.72850657  0.52377164  0.04957462     1.58000
O500        O  0.67079157  0.44364467  0.05155504    -0.81100
O501        O  0.78926374  0.60590023  0.04956944    -0.75400
O502        O  0.74454099  0.71090133  0.10798008    -0.81200
O503        O  0.60726455  0.69129877  0.00656690    -0.82900
O504        O  0.61972340  0.48275365  0.97173989    -0.81300
C505        C  0.79276628  0.64467698  0.05949883     0.86900
O506        O  0.69667620  0.53362477  0.01865949    -0.88400
O507        O  0.68016316  0.53912503  0.07079709    -0.88500
O508        O  0.60766063  0.49205326  0.05479543    -0.75600
Mg509      Mg  0.75082754  0.70923843  0.06969613     1.58000
O510        O  0.74557533  0.65028255  0.12770815    -0.82900
H511        H  0.75070661  0.71392435  0.99559163    -0.06700
O512        O  0.61593512  0.55752076  0.01204348    -0.88200
H513        H  0.54544210  0.52231758  0.02231531    -0.06500
H514        H  0.75969937  0.55524822  0.00101953    -0.06700
C515        C  0.58014299  0.55671246  0.02198889     0.86900
C516        C  0.73657079  0.70190154  0.01311126     0.87500
C517        C  0.72753702  0.55946099  0.00370970     0.87500
H518        H  0.61819868  0.50387720  0.08981922    -0.06600
O519        O  0.65090841  0.61137507  0.09615463    -0.75700
Mg520      Mg  0.61765153  0.48908715  0.01468016     1.58000
H521        H  0.61159558  0.64395085  0.08577709    -0.06700
C522        C  0.59477025  0.66980433  0.98667585     0.92500
O523        O  0.63522576  0.55740096  0.95928775    -0.82900
C524        C  0.62298699  0.51220684  0.95498582     0.92600
O525        O  0.74182032  0.77591776  0.07183228    -0.82900
Mg526      Mg  0.71336390  0.59285477  0.09807558     1.58200
O527        O  0.60705716  0.63798792  0.97960313    -0.81200
O528        O  0.76641949  0.51234853  0.08070225    -0.82900
O529        O  0.45228756  0.36249165  0.73533504    -0.88500
C530        C  0.33937543  0.30174960  0.78166439     0.87500
Mg531      Mg  0.52397172  0.37852384  0.74301321     1.58100
O532        O  0.40740644  0.43041092  0.77343504    -0.88200
O533        O  0.41871720  0.40318629  0.72076353    -0.75600
C534        C  0.56634451  0.46127284  0.85610482     0.92600
O535        O  0.43482252  0.28045189  0.77367304    -0.75400
O536        O  0.58193419  0.43998343  0.84155749    -0.82900
Mg537      Mg  0.39408417  0.28871843  0.74252287     1.58000
C538        C  0.41625751  0.51054962  0.83528693     0.92500
O539        O  0.34908020  0.28914006  0.71042119    -0.81100
H540        H  0.42285076  0.49266976  0.75526266    -0.06500
C541        C  0.43441234  0.37799226  0.82980971     0.87500
O542        O  0.54616978  0.45797217  0.75539148    -0.75600
O543        O  0.36387693  0.32307062  0.76396423    -0.88400
O544        O  0.39730705  0.49329961  0.81546268    -0.81200
C545        C  0.27280317  0.38090667  0.77434930     0.92600
C546        C  0.31593361  0.30079051  0.70601271     0.92500
Mg547      Mg  0.49827210  0.48576445  0.81674696     1.58000
O548        O  0.53488999  0.47428307  0.85003048    -0.81100
O549        O  0.46696102  0.50472846  0.78351719    -0.75400
O550        O  0.28734040  0.35093727  0.76873144    -0.81200
O551        O  0.42892882  0.25216981  0.72099249    -0.82900
O552        O  0.62171781  0.42318648  0.78585375    -0.81300
C553        C  0.43183043  0.47675277  0.76987472     0.86900
O554        O  0.53574415  0.45851867  0.79372663    -0.88400
O555        O  0.43445819  0.41271511  0.81913051    -0.88500
O556        O  0.46941002  0.36785612  0.82752105    -0.75600
Mg557      Mg  0.35514130  0.37881667  0.74669419     1.58000
O558        O  0.29739799  0.41332927  0.78993377    -0.82900
H559        H  0.47755875  0.40189492  0.70585166    -0.06700
O560        O  0.50288132  0.35174037  0.77795967    -0.88200
H561        H  0.48722128  0.29244221  0.79747846    -0.06500
H562        H  0.56599044  0.52052052  0.77465287    -0.06700
C563        C  0.47606583  0.30768506  0.78338720     0.86900
C564        C  0.45052478  0.38909606  0.71987845     0.87500
C565        C  0.55064435  0.48060653  0.77481306     0.87500
H566        H  0.40385336  0.35559043  0.84138704    -0.06600
O567        O  0.33484254  0.32606843  0.79890645    -0.75700
Mg568      Mg  0.54412812  0.39757087  0.80692635     1.58000
H569        H  0.32096675  0.26161694  0.78240373    -0.06700
C570        C  0.47351472  0.26144492  0.72077760     0.92500
O571        O  0.60001838  0.39759645  0.74890585    -0.82900
C572        C  0.63236431  0.41649071  0.76459653     0.92600
O573        O  0.30596176  0.32639056  0.72026449    -0.82900
Mg574      Mg  0.36676458  0.41086598  0.80661820     1.58200
O575        O  0.50848992  0.30188676  0.72894608    -0.81200
O576        O  0.45618042  0.51197426  0.84115499    -0.82900
C577        C  0.58598889  0.47360172  0.88069287    -0.00300
C578        C  0.58020316  0.43624962  0.89652235    -0.12200
C579        C  0.59280633  0.44710738  0.92059573     0.01900
C580        C  0.61230638  0.49642079  0.92934204    -0.00400
C581        C  0.62010241  0.53362345  0.91288232    -0.12100
C582        C  0.60693713  0.52275467  0.88924025     0.01800
H583        H  0.56401315  0.39815142  0.89030083     0.14800
H584        H  0.63579820  0.57208332  0.91847327     0.14800
C585        C  0.61545194  0.56322434  0.87396468     0.36500
C586        C  0.58404990  0.40677957  0.93591534     0.36400
N587        N  0.62226245  0.59561361  0.86172416    -0.43900
N588        N  0.57700771  0.37438132  0.94820219    -0.43900
C589        C  0.48511513  0.22404608  0.71080234    -0.00300
C590        C  0.52264825  0.23873163  0.69387353    -0.12200
C591        C  0.53097958  0.20333992  0.68218829     0.01900
C592        C  0.50274606  0.15259286  0.68807656    -0.00400
C593        C  0.46799314  0.13850897  0.70633555    -0.12100
C594        C  0.45847319  0.17363199  0.71747611     0.01800
H595        H  0.54360571  0.27749926  0.68885874     0.14800
H596        H  0.44545630  0.09946351  0.71061072     0.14800
C597        C  0.42049050  0.15689075  0.73533760     0.36500
C598        C  0.56710568  0.21955239  0.66347528     0.36400
N599        N  0.38999654  0.14350617  0.74961918    -0.43900
N600        N  0.59598510  0.23255209  0.64844496    -0.43900
C601        C  0.54984853  0.74454223  0.93998863    -0.00300
C602        C  0.53455881  0.73974946  0.96340333    -0.12200
C603        C  0.54336091  0.71006998  0.97857670     0.01900
C604        C  0.56957946  0.68629998  0.97036863    -0.00400
C605        C  0.57968909  0.68666747  0.94624931    -0.12100
C606        C  0.56983118  0.71560225  0.93097047     0.01800
H607        H  0.51771493  0.76101122  0.97006144     0.14800
H608        H  0.59897264  0.66779992  0.93960484     0.14800
C609        C  0.58430744  0.71835039  0.90663994     0.36500
C610        C  0.52633390  0.70578994  0.00254629     0.36400
N611        N  0.59580851  0.72040216  0.88713907    -0.43900
N612        N  0.51237076  0.70204988  0.02170743    -0.43900
C613        C  0.46767778  0.89980651  0.76716409    -0.00300
C614        C  0.44859482  0.92963895  0.75931581    -0.12200
C615        C  0.44071209  0.93308922  0.73538057     0.01900
C616        C  0.45217263  0.90636528  0.71824308    -0.00400
C617        C  0.46820572  0.87376235  0.72626551    -0.12100
C618        C  0.47655856  0.87084332  0.75039332     0.01800
H619        H  0.44226493  0.95260864  0.77189646     0.14800
H620        H  0.47671516  0.85250922  0.71361848     0.14800
C621        C  0.49652199  0.83970162  0.75747095     0.36500
C622        C  0.42126723  0.96517508  0.72904321     0.36400
N623        N  0.51243499  0.81463993  0.76315931    -0.43900
N624        N  0.40575416  0.99105967  0.72419778    -0.43900
C625        C  0.81887537  0.53299466  0.11376079    -0.00300
C626        C  0.85761059  0.52910545  0.10301525    -0.12200
C627        C  0.89769610  0.53449580  0.11615994     0.01900
C628        C  0.89911088  0.54363820  0.14058444    -0.00400
C629        C  0.85743209  0.54184370  0.15147276    -0.12100
C630        C  0.81783110  0.53696816  0.13837146     0.01800
H631        H  0.85818080  0.52514055  0.08411629     0.14800
H632        H  0.85672301  0.54695635  0.17028735     0.14800
C633        C  0.77714292  0.53745213  0.15062079     0.36500
C634        C  0.93762725  0.53316355  0.10379545     0.36400
N635        N  0.74461893  0.53790238  0.16044268    -0.43900
N636        N  0.96917658  0.53153047  0.09365550    -0.43900
C637        C  0.30388081  0.50873595  0.87812584    -0.00300
C638        C  0.32227083  0.54236452  0.85947659    -0.12200
C639        C  0.36318830  0.54805997  0.84644371     0.01900
C640        C  0.38664421  0.52066855  0.85248041    -0.00400
C641        C  0.37155406  0.49155166  0.87273740    -0.12100
C642        C  0.33010066  0.48494878  0.88541265     0.01800
H643        H  0.30277154  0.56151711  0.85412359     0.14800
H644        H  0.38934187  0.47029186  0.87743858     0.14800
C645        C  0.31390013  0.45198927  0.90528526     0.36500
C646        C  0.37940465  0.58059243  0.82643285     0.36400
N647        N  0.30079665  0.42561636  0.92121693    -0.43900
N648        N  0.39265444  0.60689013  0.81047140    -0.43900
C649        C  0.13652077  0.58340744  0.05052740    -0.00300
C650        C  0.17989707  0.59659774  0.06321382    -0.12200
C651        C  0.18221248  0.60440066  0.08790310     0.01900
C652        C  0.14037557  0.59874411  0.10072870    -0.00400
C653        C  0.09810961  0.58792588  0.08761081    -0.12100
C654        C  0.09582686  0.58047072  0.06319710     0.01800
H655        H  0.21181193  0.59957317  0.05393261     0.14800
H656        H  0.06612038  0.58560473  0.09645512     0.14800
C657        C  0.05121506  0.57111822  0.05149372     0.36500
C658        C  0.22797435  0.61802882  0.09947003     0.36400
N659        N  0.01558853  0.56367835  0.04204781    -0.43900
N660        N  0.26487606  0.62923977  0.10866024    -0.43900
C661        C  0.28056157  0.69860510  0.92563831    -0.00300
C662        C  0.27215747  0.70992770  0.90273216    -0.12200
C663        C  0.31097423  0.74267842  0.88793377     0.01900
C664        C  0.35975029  0.76638313  0.89608694    -0.00400
C665        C  0.36711879  0.75991653  0.92000466    -0.12100
C666        C  0.32836547  0.72649862  0.93463562     0.01800
H667        H  0.23554491  0.68874342  0.89541347     0.14800
H668        H  0.40402691  0.77926210  0.92710943     0.14800
C669        C  0.33941450  0.71830441  0.95808477     0.36500
C670        C  0.30018869  0.74697772  0.86386529     0.36400
N671        N  0.34829095  0.71196814  0.97693059    -0.43900
N672        N  0.29146125  0.75006921  0.84452144    -0.43900
C673        C  0.89809078  0.23133891  0.92545736    -0.00300
C674        C  0.85495837  0.23399005  0.92159214    -0.12200
C675        C  0.81659528  0.19852065  0.90750531     0.01900
C676        C  0.81996599  0.15809732  0.89740818    -0.00400
C677        C  0.86342945  0.15599858  0.90095763    -0.12100
C678        C  0.90240700  0.19226375  0.91432986     0.01800
H679        H  0.85144747  0.26439570  0.92931216     0.14800
H680        H  0.86648845  0.12498664  0.89367584     0.14800
C681        C  0.94584197  0.18733219  0.91680789     0.36500
C682        C  0.77324449  0.20339912  0.90462040     0.36400
N683        N  0.98065707  0.18331850  0.91859473    -0.43900
N684        N  0.73866908  0.20761388  0.90226282    -0.43900
C685        C  0.29193458  0.29007362  0.68283437    -0.00300
C686        C  0.26489695  0.31411910  0.67725271    -0.12200
C687        C  0.25848415  0.32293596  0.65398841     0.01900
C688        C  0.27792087  0.30583532  0.63595151    -0.00400
C689        C  0.29457078  0.27230952  0.64162937    -0.12100
C690        C  0.30275633  0.26511434  0.66484147     0.01800
H691        H  0.25338834  0.33100157  0.69095410     0.14800
H692        H  0.30661507  0.25600587  0.62787298     0.14800
C693        C  0.32629555  0.23576840  0.66924219     0.36500
C694        C  0.23665618  0.35384520  0.64954170     0.36400
N695        N  0.34544363  0.21247638  0.67260912    -0.43900
N696        N  0.21925105  0.37873359  0.64613403    -0.43900
C697        C  0.42495758  0.69525444  0.56050017    -0.00300
C698        C  0.42959323  0.69869184  0.58531431    -0.12200
C699        C  0.42943279  0.73776909  0.59832510     0.01900
C700        C  0.42563421  0.77534564  0.58654512    -0.00400
C701        C  0.42837346  0.77540310  0.56159917    -0.12100
C702        C  0.42707725  0.73567906  0.54865537     0.01800
H703        H  0.42922621  0.66831328  0.59481382     0.14800
H704        H  0.42763037  0.80500364  0.55191876     0.14800
C705        C  0.42276356  0.73503226  0.52350962     0.36500
C706        C  0.42931442  0.73619122  0.62357819     0.36400
N707        N  0.41914791  0.73458031  0.50334650    -0.43900
N708        N  0.42941471  0.73498299  0.64383514    -0.43900
C709        C  0.39455888  0.25125099  0.56399492    -0.00300
C710        C  0.43567344  0.26024122  0.57748602    -0.12200
C711        C  0.43258415  0.22586891  0.59454216     0.01900
C712        C  0.38758818  0.18132101  0.59842256    -0.00400
C713        C  0.34723840  0.17208910  0.58428202    -0.12100
C714        C  0.35030082  0.20607607  0.56741301     0.01800
H715        H  0.46965935  0.29516838  0.57546075     0.14800
H716        H  0.31254265  0.13790134  0.58641435     0.14800
C717        C  0.30696389  0.19362791  0.55380954     0.36500
C718        C  0.47613123  0.23720918  0.60764999     0.36400
N719        N  0.27217405  0.18345669  0.54293854    -0.43900
N720        N  0.51106241  0.24625188  0.61816175    -0.43900
C721        C  0.47017441  0.58858835  0.38197240    -0.00300
C722        C  0.46455488  0.62342117  0.39614708    -0.12200
C723        C  0.46080368  0.61953755  0.42106468     0.01900
C724        C  0.46277514  0.58012349  0.43275764    -0.00400
C725        C  0.46703288  0.54481678  0.41836551    -0.12100
C726        C  0.47038168  0.54843976  0.39368082     0.01800
H727        H  0.46487898  0.65493118  0.38782724     0.14800
H728        H  0.46734527  0.51337646  0.42642166     0.14800
C729        C  0.47287354  0.50924373  0.38070709     0.36500
C730        C  0.45672901  0.65764804  0.43414927     0.36400
N731        N  0.47476306  0.47776436  0.37032501    -0.43900
N732        N  0.45351100  0.68831354  0.44460730    -0.43900
C733        C  0.36950646  0.63126650  0.25188316    -0.00300
C734        C  0.36687606  0.63075049  0.22694037    -0.12200
C735        C  0.32704238  0.62993308  0.21506553     0.01900
C736        C  0.28788523  0.62886329  0.22799537    -0.00400
C737        C  0.28742012  0.62226707  0.25265717    -0.12100
C738        C  0.32756403  0.62394611  0.26455775     0.01800
H739        H  0.39770313  0.63414573  0.21649687     0.14800
H740        H  0.25680369  0.61950091  0.26307356     0.14800
C741        C  0.32623802  0.62210965  0.28980174     0.36500
C742        C  0.32907295  0.63388388  0.18986455     0.36400
N743        N  0.32525777  0.62063391  0.31006043    -0.43900
N744        N  0.33055065  0.63678631  0.16964149    -0.43900
C745        C  0.82518171  0.68888793  0.26377661    -0.00300
C746        C  0.86772383  0.73438099  0.25918343    -0.12200
C747        C  0.90363260  0.73803066  0.24296650     0.01900
C748        C  0.89687033  0.69567575  0.22990395    -0.00400
C749        C  0.85470142  0.64975733  0.23486682    -0.12100
C750        C  0.81950609  0.64594862  0.25181881     0.01800
H751        H  0.87256418  0.76774365  0.26808113     0.14800
H752        H  0.84953821  0.61651114  0.22576138     0.14800
C753        C  0.77713895  0.59781730  0.25602871     0.36500
C754        C  0.94634730  0.78649952  0.23971777     0.36400
N755        N  0.74336484  0.55911298  0.25949661    -0.43900
N756        N  0.98046204  0.82543658  0.23724912    -0.43900
C757        C  0.74843854  0.71964429  0.14822404    -0.00300
C758        C  0.78803034  0.73486647  0.16347793    -0.12200
C759        C  0.79169013  0.76367530  0.18323612     0.01900
C760        C  0.75369831  0.77491547  0.18852984    -0.00400
C761        C  0.71732324  0.76431300  0.17180992    -0.12100
C762        C  0.71442850  0.73692300  0.15177086     0.01800
H763        H  0.81628346  0.72483605  0.15979197     0.14800
H764        H  0.68840048  0.77349577  0.17527186     0.14800
C765        C  0.67432300  0.72468895  0.13586860     0.36500
C766        C  0.83462984  0.78135556  0.19776727     0.36400
N767        N  0.64212365  0.71541085  0.12327772    -0.43900
N768        N  0.86934426  0.79645905  0.20927921    -0.43900
C769        C  0.53940822  0.33292202  0.44801070    -0.00300
C770        C  0.54731643  0.37756140  0.43799335    -0.12200
C771        C  0.54602961  0.41475204  0.45184606     0.01900
C772        C  0.53656941  0.40728228  0.47619976    -0.00400
C773        C  0.53485961  0.36519447  0.48639684    -0.12100
C774        C  0.53606736  0.32817311  0.47259730     0.01800
H775        H  0.55158275  0.38220502  0.41914685     0.14800
H776        H  0.52973863  0.35958735  0.50517103     0.14800
C777        C  0.53326710  0.28547142  0.48414229     0.36500
C778        C  0.55187259  0.45868492  0.44038443     0.36400
N779        N  0.53118562  0.25139049  0.49342655    -0.43900
N780        N  0.55652616  0.49411322  0.43140683    -0.43900
C781        C  0.37446437  0.92669354  0.29816007    -0.00300
C782        C  0.35425739  0.87767996  0.30644447    -0.12200
C783        C  0.31836866  0.83731969  0.29361279     0.01900
C784        C  0.30155494  0.84599763  0.27236025    -0.00400
C785        C  0.32517087  0.89399707  0.26296320    -0.12100
C786        C  0.36188442  0.93418406  0.27542500     0.01800
H787        H  0.36393843  0.87128133  0.32373507     0.14800
H788        H  0.31272736  0.90059695  0.24641442     0.14800
C789        C  0.38187537  0.98313474  0.26540941     0.36500
C790        C  0.29630192  0.78819767  0.30358272     0.36400
N791        N  0.39782461  0.02225073  0.25727818    -0.43900
N792        N  0.27882103  0.74882916  0.31157334    -0.43900
C793        C  0.35001315  0.08441723  0.48113665    -0.00300
C794        C  0.31713533  0.03289524  0.48228686    -0.12200
C795        C  0.29438299  0.01040005  0.50335932     0.01900
C796        C  0.30456053  0.03979561  0.52379981    -0.00400
C797        C  0.33226294  0.09203435  0.52185438    -0.12100
C798        C  0.35545852  0.11444411  0.50086804     0.01800
H799        H  0.31100942  0.00954312  0.46693053     0.14800
H800        H  0.33925169  0.11562008  0.53718095     0.14800
C801        C  0.38508244  0.16801441  0.50032108     0.36500
C802        C  0.26256631  0.95710840  0.50357118     0.36400
N803        N  0.40865554  0.21093453  0.50002905    -0.43900
N804        N  0.23705258  0.91441950  0.50368935    -0.43900
C805        C  0.76864041  0.04487111  0.01703934    -0.00300
C806        C  0.76688009  0.07419491  0.99894597    -0.12200
C807        C  0.74488609  0.05274421  0.97769336     0.01900
C808        C  0.72449111  0.00086138  0.97423520    -0.00400
C809        C  0.73179647  0.97271023  0.99106756    -0.12100
C810        C  0.75499046  0.99457525  0.01216303     0.01800
H811        H  0.77844254  0.11312738  0.00206502     0.14800
H812        H  0.71877104  0.93350236  0.98786388     0.14800
C813        C  0.76289804  0.96409867  0.02861768     0.36500
C814        C  0.73997850  0.08436462  0.96071760     0.36400
N815        N  0.76962538  0.93980879  0.04170684    -0.43900
N816        N  0.73618921  0.10986244  0.94720495    -0.43900
C817        C  0.82326886  0.30047170  0.03955664    -0.00300
C818        C  0.81363251  0.31021956  0.01694664    -0.12200
C819        C  0.85031613  0.34960445  0.00402380     0.01900
C820        C  0.89718754  0.38041862  0.01402292    -0.00400
C821        C  0.90478505  0.37346557  0.03751330    -0.12100
C822        C  0.86850755  0.33335394  0.05018483     0.01800
H823        H  0.77867555  0.28513608  0.00883342     0.14800
H824        H  0.94060325  0.39656584  0.04531961     0.14800
C825        C  0.87940127  0.32496011  0.07365394     0.36500
C826        C  0.83978320  0.35598913  0.98014913     0.36400
N827        N  0.88802766  0.31805826  0.09244642    -0.43900
N828        N  0.83127178  0.36089824  0.96100653    -0.43900
C829        C  0.59711250  0.16624116  0.21319292    -0.00300
C830        C  0.55793925  0.17341503  0.22055753    -0.12200
C831        C  0.54698867  0.17421844  0.24457546     0.01900
C832        C  0.57599506  0.16875423  0.26201916    -0.00400
C833        C  0.61730378  0.16514232  0.25464631    -0.12100
C834        C  0.62769449  0.16339810  0.23058243     0.01800
H835        H  0.53413926  0.17565335  0.20752827     0.14800
H836        H  0.63979377  0.16060917  0.26764382     0.14800
C837        C  0.66965850  0.15779289  0.22415120     0.36500
C838        C  0.50464508  0.17926563  0.25091078     0.36400
N839        N  0.70354991  0.15360494  0.21915382    -0.43900
N840        N  0.47067322  0.18324809  0.25599747    -0.43900
C841        C  0.60679263  0.27947291  0.08257425    -0.00300
C842        C  0.59583039  0.27385645  0.05828286    -0.12200
C843        C  0.59929457  0.31328436  0.04476173     0.01900
C844        C  0.61355618  0.35947985  0.05551813    -0.00400
C845        C  0.61661240  0.36239946  0.08030149    -0.12100
C846        C  0.61295445  0.32288674  0.09382666     0.01800
H847        H  0.58909350  0.23990063  0.04933211     0.14800
H848        H  0.62525519  0.39710603  0.08906691     0.14800
C849        C  0.61936352  0.32934288  0.11884334     0.36500
C850        C  0.59284530  0.30683793  0.01973442     0.36400
N851        N  0.62388472  0.33433496  0.13895021    -0.43900
N852        N  0.58752752  0.30166863  0.99966686    -0.43900
C853        C  0.70663863  0.90620797  0.10352342    -0.00300
C854        C  0.67097731  0.87989342  0.08641141    -0.12200
C855        C  0.67367110  0.84403328  0.07189750     0.01900
C856        C  0.71292202  0.83363136  0.07431147    -0.00400
C857        C  0.74914381  0.86121519  0.09129645    -0.12100
C858        C  0.74632812  0.89701102  0.10567704     0.01800
H859        H  0.64136345  0.88826338  0.08400007     0.14800
H860        H  0.77953198  0.85412430  0.09385279     0.14800
C861        C  0.78413214  0.92316986  0.12291292     0.36500
C862        C  0.63530575  0.81857118  0.05489787     0.36400
N863        N  0.81431418  0.94384305  0.13681093    -0.43900
N864        N  0.60446898  0.79846214  0.04124885    -0.43900
C865        C  0.56462853  0.92424941  0.19081584    -0.00300
C866        C  0.53269997  0.87378795  0.18602582    -0.12200
C867        C  0.53493806  0.83678980  0.19905300     0.01900
C868        C  0.57141116  0.85047835  0.21641479    -0.00400
C869        C  0.60120781  0.90100263  0.22206143    -0.12100
C870        C  0.59749265  0.93778775  0.20969057     0.01800
H871        H  0.50767479  0.86334824  0.17136684     0.14800
H872        H  0.62863041  0.91184962  0.23566792     0.14800
C873        C  0.63080988  0.98938789  0.21527096     0.36500
C874        C  0.50174827  0.78537106  0.19312897     0.36400
N875        N  0.65729150  0.03081935  0.21962190    -0.43900
N876        N  0.47483889  0.74417770  0.18850446    -0.43900
C877        C  0.99780008  0.75082734  0.34422668    -0.00300
C878        C  0.04949345  0.77333098  0.34281665    -0.12200
C879        C  0.07419275  0.79015733  0.32144241     0.01900
C880        C  0.04674069  0.78503994  0.30116951    -0.00400
C881        C  0.99637735  0.77091752  0.30368788    -0.12100
C882        C  0.97149560  0.75248701  0.32482382     0.01800
H883        H  0.07036992  0.77406313  0.35801192     0.14800
H884        H  0.97493636  0.76924666  0.28856321     0.14800
C885        C  0.91887603  0.73343243  0.32573103     0.36500
C886        C  0.12671315  0.80871943  0.32069813     0.36400
N887        N  0.87671215  0.71804857  0.32633508    -0.43900
N888        N  0.16879453  0.82356676  0.32020087    -0.43900
C889        C  0.66632207  0.54799127  0.34581958    -0.00300
C890        C  0.70603591  0.54429224  0.33596913    -0.12200
C891        C  0.74437337  0.54855207  0.34986660     0.01900
C892        C  0.74297265  0.55559782  0.37422247    -0.00400
C893        C  0.70138421  0.55471012  0.38445865    -0.12100
C894        C  0.66336806  0.55164196  0.37047048     0.01800
H895        H  0.70849914  0.54060516  0.31713555     0.14800
H896        H  0.69999200  0.55938140  0.40327609     0.14800
C897        C  0.62455479  0.55718401  0.38169884     0.36500
C898        C  0.78492050  0.54588517  0.33869544     0.36400
N899        N  0.59367491  0.56233218  0.39049805    -0.43900
N900        N  0.81735667  0.54368424  0.32975148    -0.43900
C901        C  0.77614537  0.38040519  0.41812031    -0.00300
C902        C  0.77236199  0.39178234  0.39451416    -0.12200
C903        C  0.73979435  0.35577850  0.37863377     0.01900
C904        C  0.71015508  0.30624798  0.38578960    -0.00400
C905        C  0.71709425  0.29368069  0.40866936    -0.12100
C906        C  0.75000280  0.32996435  0.42467633     0.01800
H907        H  0.79309445  0.43000227  0.38865012     0.14800
H908        H  0.69378023  0.25592896  0.41469990     0.14800
C909        C  0.75338043  0.31501728  0.44808244     0.36500
C910        C  0.73385280  0.37170362  0.35582169     0.36400
N911        N  0.75625740  0.30288541  0.46682322    -0.43900
N912        N  0.72911162  0.38471193  0.33759659    -0.43900
C913        C  0.15137990  0.84905274  0.42412469    -0.00300
C914        C  0.19114117  0.84283219  0.41647466    -0.12200
C915        C  0.23213749  0.88099157  0.40480401     0.01900
C916        C  0.23449670  0.92722703  0.40062141    -0.00400
C917        C  0.19502092  0.93367548  0.40866280    -0.12100
C918        C  0.15370545  0.89518508  0.42002875     0.01800
H919        H  0.18963528  0.80737108  0.41905831     0.14800
H920        H  0.19671099  0.96927535  0.40631747     0.14800
C921        C  0.11484852  0.90450184  0.42804475     0.36500
C922        C  0.27228257  0.87232795  0.39836250     0.36400
N923        N  0.08376393  0.91198235  0.43458787    -0.43900
N924        N  0.30452618  0.86544820  0.39327449    -0.43900
C925        C  0.14397701  0.69965629  0.51886536    -0.00300
C926        C  0.19137407  0.72907094  0.50909883    -0.12200
C927        C  0.22908798  0.76718632  0.52204793     0.01900
C928        C  0.22016553  0.77563394  0.54541294    -0.00400
C929        C  0.17500713  0.74305650  0.55607419    -0.12100
C930        C  0.13702176  0.70482114  0.54311877     0.01800
H931        H  0.19779638  0.72532348  0.49063966     0.14800
H932        H  0.16857527  0.74909545  0.57425173     0.14800
C933        C  0.09038987  0.67450858  0.55479279     0.36500
C934        C  0.27496011  0.80019325  0.51034161     0.36400
N935        N  0.05314494  0.65018614  0.56426117    -0.43900
N936        N  0.31157293  0.82687580  0.50093565    -0.43900
C937        C  0.00001633  0.30791663  0.80477348    -0.00300
C938        C  0.04849880  0.34708411  0.80724985    -0.12200
C939        C  0.07508920  0.35236411  0.82749406     0.01900
C940        C  0.05272626  0.31767338  0.84576634    -0.00400
C941        C  0.00667902  0.27492159  0.84178916    -0.12100
C942        C  0.97999844  0.27009910  0.82155653     0.01800
H943        H  0.06481872  0.37524822  0.79376935     0.14800
H944        H  0.98971631  0.24696528  0.85530350     0.14800
C945        C  0.93257651  0.22625795  0.81840777     0.36500
C946        C  0.12320154  0.39592113  0.82956227     0.36400
N947        N  0.89476308  0.19086688  0.81585217    -0.43900
N948        N  0.16165179  0.43094001  0.83110935    -0.43900
C949        C  0.68258214  0.42898714  0.75609273    -0.00300
C950        C  0.69936304  0.45584057  0.73490323    -0.12200
C951        C  0.73372012  0.45164735  0.71997832     0.01900
C952        C  0.75232268  0.41996487  0.72606554    -0.00400
C953        C  0.73880445  0.39693802  0.74838117    -0.12100
C954        C  0.70426697  0.40078393  0.76310226     0.01800
H955        H  0.68229421  0.47700860  0.72900473     0.14800
H956        H  0.75358801  0.37360985  0.75412157     0.14800
C957        C  0.68783063  0.37108555  0.78407546     0.36500
C958        C  0.74635015  0.47742772  0.69791699     0.36400
N959        N  0.67456651  0.34703019  0.80079842    -0.43900
N960        N  0.75644043  0.49812082  0.68021063    -0.43900
C961        C  0.15593274  0.37535219  0.73104601    -0.00300
C962        C  0.15913695  0.33244590  0.73518941    -0.12200
C963        C  0.19531371  0.33332759  0.74984628     0.01900
C964        C  0.23005522  0.37816876  0.76115002    -0.00400
C965        C  0.22674540  0.42127764  0.75711189    -0.12100
C966        C  0.19023187  0.42019275  0.74230545     0.01800
H967        H  0.13207381  0.29743210  0.72743749     0.14800
H968        H  0.25298863  0.45602895  0.76533263     0.14800
C969        C  0.18678922  0.46491129  0.74012083     0.36500
C970        C  0.19446740  0.28668612  0.75343980     0.36400
N971        N  0.18369889  0.50057640  0.73839401    -0.43900
N972        N  0.19365928  0.24923072  0.75619618    -0.43900
C973        C  0.73715676  0.21743140  0.77087649    -0.00300
C974        C  0.72618294  0.23057503  0.79279863    -0.12200
C975        C  0.69020328  0.19444458  0.80727078     0.01900
C976        C  0.66572114  0.14412439  0.79995375    -0.00400
C977        C  0.67296635  0.13225593  0.77689052    -0.12100
C978        C  0.70861183  0.16856542  0.76234084     0.01800
H979        H  0.74681776  0.26880546  0.79889059     0.14800
H980        H  0.65435371  0.09383717  0.77096498     0.14800
C981        C  0.71804801  0.15407363  0.73951955     0.36500
C982        C  0.68039678  0.20953062  0.82986648     0.36400
N983        N  0.72569237  0.14245545  0.72125334    -0.43900
N984        N  0.67237277  0.22164449  0.84792714    -0.43900
C985        C  0.89211007  0.45262425  0.59664627    -0.00300
C986        C  0.89778717  0.42596341  0.57767349    -0.12200
C987        C  0.90068779  0.44140685  0.55432912     0.01900
C988        C  0.89744075  0.48426084  0.54933006    -0.00400
C989        C  0.88913491  0.50946943  0.56813103    -0.12100
C990        C  0.88633875  0.49406717  0.59154238     0.01800
H991        H  0.90302421  0.39445422  0.58121776     0.14800
H992        H  0.88735340  0.54297223  0.56460479     0.14800
C993        C  0.88246535  0.52429012  0.61005121     0.36500
C994        C  0.91248505  0.41591337  0.53614598     0.36400
N995        N  0.87962427  0.54869568  0.62488915    -0.43900
N996        N  0.92249098  0.39582747  0.52160986    -0.43900
C997        C  0.13220483  0.49191919  0.62615895    -0.00300
C998        C  0.18154494  0.52446714  0.63189331    -0.12200
C999        C  0.21992596  0.52431568  0.61890587     0.01900
C1000       C  0.20891047  0.48997470  0.60030667    -0.00400
C1001       C  0.15993413  0.46079279  0.59321617    -0.12100
C1002       C  0.12161347  0.46222226  0.60564222     0.01800
H1003       H  0.18999044  0.54733023  0.64758402     0.14800
H1004       H  0.15144865  0.43514532  0.57858376     0.14800
C1005       C  0.07162472  0.42882647  0.59837672     0.36500
C1006       C  0.26994924  0.55627527  0.62642098     0.36400
N1007       N  0.03161238  0.40219729  0.59251713    -0.43900
N1008       N  0.31008558  0.58196755  0.63236690    -0.43900
loop_ 
_geom_bond_atom_site_label_1 
_geom_bond_atom_site_label_2 
_geom_bond_distance 
_geom_bond_site_symmetry_2 
_ccdc_geom_bond_type 
O1           Mg3   2.163   1_455  S
O1           Mg9   2.177       .  S
O1           C36   1.233   1_455  S
C2           O15   1.233       .  S
C2           O39   1.268   1_455  A
C2           H41   1.081       .  S
Mg3          O32   2.146       .  S
Mg3          O47   2.314   1_655  S
Mg3          O43   2.254       .  S
Mg3          O14   2.275       .  S
O4          Mg46   2.179       .  S
O4          Mg29   2.138       .  S
O4           C25   1.240       .  S
O5           C36   1.265       .  A
O5          Mg29   2.281       .  S
C6            O8   1.288       .  A
C6           O20   1.264       .  A
C6          C952   1.511       .  S
O7           C35   1.266   1_455  A
O7           Mg9   2.288       .  S
O8          Mg40   2.394       .  S
Mg9          O15   2.134       .  S
Mg9          O23   2.239       .  S
Mg9          O11   2.348       .  S
C10          O48   1.263       .  A
C10          O16   1.273       .  A
C10         C973   1.463       .  S
O11          C18   1.278       .  A
H12          C25   1.081       .  S
C13          O27   1.241       .  S
C13          O28   1.274       .  A
C13          H38   1.081       .  S
O14          C37   1.267       .  A
O15         Mg29   2.185   1_455  S
O16         Mg46   2.301       .  S
C17          O30   1.271       .  A
C17          O22   1.260       .  A
C17         C937   1.463   1_655  S
C18          O45   1.265       .  A
C18         C961   1.494       .  S
Mg19         O26   2.105       .  S
Mg19         O27   2.145       .  S
Mg19         O20   2.216       .  S
Mg19         O21   2.304       .  S
Mg19         O48   2.226       .  S
O21          C25   1.274       .  A
O22         Mg29   2.202       .  S
O23          C42   1.274       .  A
O24          C44   1.295       .  A
O24         Mg40   2.420       .  S
O26         Mg40   2.157       .  S
O26          C37   1.235       .  S
O27         Mg46   2.125       .  S
O28         Mg40   2.307       .  S
Mg29         O45   2.227   1_655  S
O30         Mg46   2.284       .  S
H31          C36   1.081       .  S
O32         Mg40   2.149       .  S
O32          C35   1.231       .  S
H33          C35   1.081       .  S
H34          C37   1.081       .  S
O39         Mg46   2.309       .  S
C42          O47   1.279       .  A
C42         C997   1.476       .  S
O43          C44   1.276       .  A
C44         C985   1.500       .  S
O49         Mg51   2.170   1_455  S
O49         Mg57   2.173       .  S
O49          C84   1.234   1_455  S
C50          O63   1.232       .  S
C50          O87   1.266   1_455  A
C50          H89   1.081       .  S
Mg51         O80   2.155       .  S
Mg51         O95   2.351   1_655  S
Mg51         O91   2.278       .  S
Mg51         O62   2.281       .  S
O52         Mg94   2.183       .  S
O52         Mg77   2.149       .  S
O52          C73   1.240       .  S
O53          C84   1.267       .  A
O53         Mg77   2.286       .  S
C54          O56   1.289       .  A
C54          O68   1.265       .  A
C54         C901   1.513       .  S
O55          C83   1.266       .  A
O55         Mg57   2.287       .  S
O56         Mg88   2.411       .  S
Mg57         O63   2.118       .  S
Mg57         O71   2.216       .  S
Mg57         O59   2.342       .  S
C58          O96   1.265       .  A
C58          O64   1.273       .  A
C58         C892   1.470       .  S
O59          C66   1.279       .  A
H60          C73   1.081       .  S
C61          O75   1.241       .  S
C61          O76   1.274       .  A
C61          H86   1.081       .  S
O62          C85   1.268       .  A
O63         Mg77   2.173   1_455  S
O64         Mg94   2.292       .  S
C65          O78   1.271       .  A
C65          O70   1.263       .  A
C65         C877   1.468       .  S
C66          O93   1.267       .  A
C66         C913   1.495       .  S
Mg67         O74   2.110       .  S
Mg67         O75   2.145       .  S
Mg67         O68   2.226       .  S
Mg67         O69   2.306       .  S
Mg67         O96   2.236       .  S
O69          C73   1.274       .  A
O70         Mg77   2.221       .  S
O71          C90   1.272       .  A
O72          C92   1.294       .  A
O72         Mg88   2.408       .  S
O74         Mg88   2.157       .  S
O74          C85   1.236       .  S
O75         Mg94   2.125       .  S
O76         Mg88   2.307       .  S
Mg77         O93   2.250   1_655  S
O78         Mg94   2.266       .  S
H79          C84   1.081       .  S
O80         Mg88   2.159       .  S
O80          C83   1.233   1_655  S
H81          C83   1.081       .  S
H82          C85   1.081       .  S
O87         Mg94   2.297       .  S
C90          O95   1.283       .  A
C90         C925   1.489       .  S
O91          C92   1.280       .  A
C92         C988   1.497       .  S
O97         Mg99   2.091       .  S
O97        Mg105   2.134       .  S
O97         C132   1.234       .  S
C98         O111   1.239       .  S
C98         O135   1.276       .  A
C98         H137   1.081       .  S
Mg99        O128   2.135       .  S
Mg99        O143   2.314       .  S
Mg99        O139   2.171       .  S
Mg99        O110   2.299       .  S
O100       Mg142   2.182       .  S
O100       Mg125   2.236       .  S
O100        C121   1.267   1_545  A
O101        C132   1.265       .  A
O101       Mg125   2.281       .  S
C102        O104   1.284       .  A
C102        O116   1.277       .  A
C102        C829   1.500       .  S
O103        C131   1.272       .  A
O103       Mg105   2.292       .  S
O104       Mg136   2.349       .  S
Mg105       O111   2.109       .  S
Mg105       O119   2.245       .  S
Mg105       O107   2.312       .  S
C106        O144   1.270       .  A
C106        O112   1.264       .  A
C106        C865   1.468       .  S
O107        C114   1.278       .  A
H108        C121   1.081       .  S
C109        O123   1.240       .  S
C109        O124   1.280       .  A
C109        H134   1.081       .  S
O110        C133   1.273       .  A
O111       Mg125   2.122       .  S
O112       Mg142   2.280   1_565  S
C113        O126   1.270       .  A
C113        O118   1.256       .  A
C113        C853   1.483       .  S
C114        O141   1.264       .  A
C114        C805   1.478       .  S
Mg115       O122   2.160       .  S
Mg115       O123   2.142       .  S
Mg115       O116   2.324       .  S
Mg115       O117   2.358       .  S
Mg115       O144   2.292   1_545  S
O117        C121   1.278   1_545  A
O118       Mg125   2.251   1_565  S
O119        C138   1.271       .  A
O120        C140   1.295       .  A
O120       Mg136   2.457       .  S
O122       Mg136   2.158       .  S
O122        C133   1.240       .  S
O123       Mg142   2.191       .  S
O124       Mg136   2.347       .  S
Mg125       O141   2.208       .  S
O126       Mg142   2.350   1_565  S
H127        C132   1.081       .  S
O128       Mg136   2.145       .  S
O128        C131   1.240       .  S
H129        C131   1.081       .  S
H130        C133   1.081       .  S
O135       Mg142   2.330       .  S
C138        O143   1.275       .  A
C138        C817   1.470       .  S
O139        C140   1.264       .  A
C140        C841   1.501       .  S
O145       Mg147   2.163       .  S
O145       Mg153   2.168       .  S
O145        C180   1.233       .  S
C146        O159   1.233       .  S
C146        O183   1.267       .  A
C146        H185   1.081       .  S
Mg147       O176   2.155       .  S
Mg147       O191   2.338       .  S
Mg147       O187   2.268       .  S
Mg147       O158   2.287       .  S
O148       Mg190   2.179       .  S
O148       Mg173   2.140       .  S
O148        C169   1.239       .  S
O149        C180   1.266       .  A
O149       Mg173   2.284       .  S
C150        O152   1.289       .  A
C150        O164   1.265       .  A
C150        C904   1.496       .  S
O151        C179   1.270       .  A
O151       Mg153   2.299       .  S
O152       Mg184   2.400       .  S
Mg153       O159   2.124       .  S
Mg153       O167   2.242   1_545  S
Mg153       O155   2.362   1_545  S
C154        O192   1.267       .  A
C154        O160   1.271       .  A
C154        C769   1.477       .  S
O155        C162   1.282       .  A
H156        C169   1.081       .  S
C157        O171   1.240       .  S
C157        O172   1.274       .  A
C157        H182   1.081       .  S
O158        C181   1.269       .  A
O159       Mg173   2.171       .  S
O160       Mg190   2.281       .  S
C161        O174   1.271       .  A
C161        O166   1.264       .  A
C161        C793   1.472       .  S
C162        O189   1.267   1_565  A
C162        C916   1.498       .  S
Mg163       O170   2.129       .  S
Mg163       O171   2.148       .  S
Mg163       O164   2.236       .  S
Mg163       O165   2.300       .  S
Mg163       O192   2.254       .  S
O165        C169   1.272       .  A
O166       Mg173   2.223       .  S
O167        C186   1.273       .  A
O168        C188   1.295       .  A
O168       Mg184   2.428       .  S
O170       Mg184   2.158       .  S
O170        C181   1.236       .  S
O171       Mg190   2.130       .  S
O172       Mg184   2.309       .  S
Mg173       O189   2.239       .  S
O174       Mg190   2.267       .  S
H175        C180   1.082       .  S
O176       Mg184   2.173       .  S
O176        C179   1.235       .  S
H177        C179   1.081       .  S
H178        C181   1.081       .  S
O183       Mg190   2.294       .  S
C186        O191   1.282   1_565  A
C186        C781   1.485       .  S
O187        C188   1.277       .  A
C188        C832   1.503       .  S
O193       Mg195   2.087       .  S
O193       Mg201   2.130       .  S
O193        C228   1.234       .  S
C194        O207   1.236       .  S
C194        O231   1.274       .  A
C194        H233   1.081       .  S
Mg195       O224   2.138       .  S
Mg195       O239   2.301       .  S
Mg195       O235   2.168       .  S
Mg195       O206   2.290       .  S
O196       Mg238   2.106       .  S
O196       Mg221   2.152       .  S
O196        C217   1.243       .  S
O197        C228   1.265       .  A
O197       Mg221   2.287       .  S
C198        O200   1.291       .  A
C198        O212   1.281       .  A
C198        C721   1.527       .  S
O199        C227   1.273       .  A
O199       Mg201   2.291       .  S
O200       Mg232   2.393       .  S
Mg201       O207   2.139       .  S
Mg201       O215   2.263       .  S
Mg201       O203   2.315       .  S
C202        O240   1.268       .  A
C202        O208   1.260       .  A
C202        C889   1.481       .  S
O203        C210   1.276       .  A
H204        C217   1.081       .  S
C205        O220   1.279       .  A
C205        H230   1.081       .  S
C205        O219   1.268       .  A
O206        C229   1.272       .  A
O207       Mg221   2.125       .  S
O208       Mg238   2.253       .  S
C209        O222   1.271       .  A
C209        O214   1.260       .  A
C209        C745   1.497       .  S
C210        O237   1.261       .  A
C210        C760   1.473       .  S
Mg211       O218   2.135       .  S
Mg211       O212   2.340       .  S
Mg211       O213   2.372       .  S
Mg211       O240   2.302       .  S
Mg211       O219   2.215       .  S
O213        C217   1.284       .  A
O214       Mg221   2.259       .  S
O215        C234   1.273       .  A
O216        C236   1.302       .  A
O216       Mg232   2.493       .  S
O218       Mg232   2.166       .  S
O218        C229   1.240       .  S
O219       Mg238   2.300       .  S
O220       Mg232   2.358       .  S
Mg221       O237   2.212       .  S
O222       Mg238   2.358       .  S
H223        C228   1.081       .  S
O224       Mg232   2.155       .  S
O224        C227   1.241       .  S
H225        C227   1.081       .  S
H226        C229   1.081       .  S
O231       Mg238   2.329       .  S
C234        O239   1.274       .  A
C234        C868   1.480       .  S
O235        C236   1.263       .  A
C236        C733   1.514       .  S
O241       Mg243   2.161       .  S
O241       Mg249   2.221       .  S
O241        C276   1.259       .  A
C242        O255   1.239       .  S
C242        O279   1.276       .  A
C242        H281   1.081       .  S
Mg243       O272   2.120       .  S
Mg243       O287   2.296       .  S
Mg243       O283   2.159       .  S
Mg243       O254   2.310       .  S
O244       Mg286   2.188       .  S
O244       Mg269   2.243       .  S
O244        C265   1.268       .  A
O245        C276   1.261       .  A
O245       Mg269   2.286       .  S
C246        O248   1.288       .  A
C246        O260   1.284       .  A
C246        C724   1.533       .  S
O247        C275   1.274       .  A
O247       Mg249   2.299       .  S
O248       Mg280   2.378       .  S
Mg249       O255   2.103       .  S
Mg249       O263   2.258       .  S
Mg249       O251   2.333       .  S
C250        O288   1.271       .  A
C250        O256   1.266       .  A
C250        C772   1.487       .  S
O251        C258   1.280       .  A
H252        C265   1.081       .  S
C253        O267   1.243       .  S
C253        O268   1.284       .  A
C253        H278   1.081       .  S
O254        C277   1.274       .  A
O255       Mg269   2.147       .  S
O256       Mg286   2.272       .  S
C257        O270   1.273       .  A
C257        O262   1.256       .  A
C257        C709   1.496       .  S
C258        O285   1.267       .  A
C258        C688   1.480       .  S
Mg259       O266   2.145       .  S
Mg259       O267   2.150       .  S
Mg259       O260   2.365       .  S
Mg259       O261   2.362       .  S
Mg259       O288   2.290       .  S
O261        C265   1.279       .  A
O262       Mg269   2.247       .  S
O263        C282   1.272       .  A
O264        C284   1.299       .  A
O264       Mg280   2.481       .  S
O266       Mg280   2.132       .  S
O266        C277   1.239       .  S
O267       Mg286   2.217       .  S
O268       Mg280   2.361       .  S
Mg269       O285   2.185       .  S
O270       Mg286   2.390       .  S
H271        C276   1.081       .  S
O272       Mg280   2.153       .  S
O272        C275   1.241       .  S
H273        C275   1.081       .  S
H274        C277   1.081       .  S
O279       Mg286   2.328       .  S
C282        O287   1.272       .  A
C282       C1000   1.474       .  S
O283        C284   1.261       .  A
C284        C697   1.500       .  S
O289       Mg291   2.087       .  S
O289       Mg297   2.132       .  S
O289        C324   1.233       .  S
C290        O303   1.239       .  S
C290        O327   1.277       .  A
C290        H329   1.081       .  S
Mg291       O320   2.139       .  S
Mg291       O335   2.306       .  S
Mg291       O331   2.157       .  S
Mg291       O302   2.296       .  S
O292       Mg334   2.178       .  S
O292       Mg317   2.234       .  S
O292        C313   1.266   1_455  A
O293        C324   1.265       .  A
O293       Mg317   2.283       .  S
C294        O296   1.286       .  A
C294        O308   1.282       .  A
C294        C649   1.515       .  S
O295        C323   1.273       .  A
O295       Mg297   2.294       .  S
O296       Mg328   2.356   1_554  S
Mg297       O303   2.116       .  S
Mg297       O311   2.246       .  S
Mg297       O299   2.322       .  S
C298        O336   1.274   1_556  A
C298        O304   1.264       .  A
C298        C820   1.478   1_556  S
O299        C306   1.277       .  A
H300        C313   1.081       .  S
C301        O315   1.240       .  S
C301        O316   1.280       .  A
C301        H326   1.081   1_556  S
O302        C325   1.273       .  A
O303       Mg317   2.119       .  S
O304       Mg334   2.272   1_655  S
C305        O318   1.271       .  A
C305        O310   1.258       .  A
C305        C673   1.502       .  S
C306        O333   1.263       .  A
C306        C940   1.475       .  S
Mg307       O314   2.162       .  S
Mg307       O315   2.149       .  S
Mg307       O308   2.338   1_556  S
Mg307       O309   2.359   1_455  S
Mg307       O336   2.314   1_456  S
O309        C313   1.277       .  A
O310       Mg317   2.251   1_655  S
O311        C330   1.271       .  A
O312        C332   1.297       .  A
O312       Mg328   2.470       .  S
O314       Mg328   2.169       .  S
O314        C325   1.239       .  S
O315       Mg334   2.203       .  S
O316       Mg328   2.347       .  S
Mg317       O333   2.198       .  S
O318       Mg334   2.364   1_655  S
H319        C324   1.081       .  S
O320       Mg328   2.152       .  S
O320        C323   1.240       .  S
H321        C323   1.081       .  S
H322        C325   1.081       .  S
O327       Mg334   2.332       .  S
C330        O335   1.273       .  A
C330        C637   1.472       .  S
O331        C332   1.261       .  A
C332        C661   1.498       .  S
O337       Mg339   2.093       .  S
O337       Mg345   2.127       .  S
O337        C372   1.234       .  S
C338        O351   1.237       .  S
C338        O375   1.275       .  A
C338        H377   1.082       .  S
Mg339       O368   2.140       .  S
Mg339       O383   2.328       .  S
Mg339       O379   2.164       .  S
Mg339       O350   2.298       .  S
O340       Mg382   2.113   1_455  S
O340       Mg365   2.143       .  S
O340        C361   1.240   1_455  S
O341        C372   1.265       .  A
O341       Mg365   2.285       .  S
C342        O344   1.290       .  A
C342        O356   1.280       .  A
C342        C652   1.526       .  S
O343        C371   1.272       .  A
O343       Mg345   2.295       .  S
O344       Mg376   2.386       .  S
Mg345       O351   2.125       .  S
Mg345       O359   2.245       .  S
Mg345       O347   2.339       .  S
C346        O384   1.273       .  A
C346        O352   1.266       .  A
C346        C628   1.490       .  S
O347        C354   1.277       .  A
H348        C361   1.081       .  S
C349        O364   1.280       .  A
C349        H374   1.081       .  S
C349        O363   1.269       .  A
O350        C373   1.273       .  A
O351       Mg365   2.116       .  S
O352       Mg382   2.269       .  S
C353        O366   1.270       .  A
C353        O358   1.254       .  A
C353        C748   1.504       .  S
C354        O381   1.260       .  A
C354        C880   1.479       .  S
Mg355       O362   2.150       .  S
Mg355       O356   2.316       .  S
Mg355       O357   2.351       .  S
Mg355       O384   2.319   1_455  S
Mg355       O363   2.209       .  S
O357        C361   1.280   1_455  A
O358       Mg365   2.229   1_655  S
O359        C378   1.272       .  A
O360        C380   1.301       .  A
O360       Mg376   2.489       .  S
O362       Mg376   2.167       .  S
O362        C373   1.240       .  S
O363       Mg382   2.286   1_455  S
O364       Mg376   2.358       .  S
Mg365       O381   2.182       .  S
O366       Mg382   2.373       .  S
H367        C372   1.081       .  S
O368       Mg376   2.162       .  S
O368        C371   1.239       .  S
H369        C371   1.081       .  S
H370        C373   1.081       .  S
O375       Mg382   2.334   1_455  S
C378        O383   1.277       .  A
C378        C784   1.475       .  S
O379        C380   1.263       .  A
C380        C736   1.510       .  S
O385       Mg387   2.167   1_545  S
O385       Mg393   2.176       .  S
O385        C420   1.232       .  S
C386        O399   1.233       .  S
C386        O423   1.267   1_545  A
C386        H425   1.081       .  S
Mg387       O416   2.144       .  S
Mg387       O431   2.319   1_565  S
Mg387       O427   2.270       .  S
Mg387       O398   2.281       .  S
O388       Mg430   2.181       .  S
O388       Mg413   2.138       .  S
O388        C409   1.241       .  S
O389        C420   1.265   1_565  A
O389       Mg413   2.280       .  S
C390        O392   1.289       .  A
C390        O404   1.267       .  A
C390        C664   1.509       .  S
O391        C419   1.268       .  A
O391       Mg393   2.293       .  S
O392       Mg424   2.387       .  S
Mg393       O399   2.114       .  S
Mg393       O407   2.221       .  S
Mg393       O395   2.369       .  S
C394        O432   1.264       .  A
C394        O400   1.270       .  A
C394        C601   1.457       .  S
O395        C402   1.282       .  A
H396        C409   1.081       .  S
C397        O411   1.240       .  S
C397        O412   1.274       .  A
C397        H422   1.081       .  S
O398        C421   1.269       .  A
O399       Mg413   2.177   1_545  S
O400       Mg430   2.268       .  S
C401        O414   1.270       .  A
C401        O406   1.260       .  A
C401        C808   1.467   1_565  S
C402        O429   1.267       .  A
C402        C676   1.499       .  S
Mg403       O410   2.108       .  S
Mg403       O411   2.143       .  S
Mg403       O404   2.243       .  S
Mg403       O405   2.308       .  S
Mg403       O432   2.234       .  S
O405        C409   1.275       .  A
O406       Mg413   2.206       .  S
O407        C426   1.272       .  A
O408        C428   1.294       .  A
O408       Mg424   2.422       .  S
O410       Mg424   2.147       .  S
O410        C421   1.236       .  S
O411       Mg430   2.123       .  S
O412       Mg424   2.307       .  S
Mg413       O429   2.233   1_565  S
O414       Mg430   2.277       .  S
H415        C420   1.081       .  S
O416       Mg424   2.155       .  S
O416        C419   1.234   1_565  S
H417        C419   1.081   1_565  S
H418        C421   1.081       .  S
O423       Mg430   2.294       .  S
C426        O431   1.280       .  A
C426        C976   1.475       .  S
O427        C428   1.277       .  A
C428        C613   1.495       .  S
O433       Mg435   2.080       .  S
O433       Mg441   2.125       .  S
O433        C468   1.233       .  S
C434        O447   1.237       .  S
C434        O471   1.275   1_565  A
C434        H473   1.081       .  S
Mg435       O464   2.133       .  S
Mg435       O479   2.304       .  S
Mg435       O475   2.149       .  S
Mg435       O446   2.297       .  S
O436       Mg478   2.111       .  S
O436       Mg461   2.147       .  S
O436        C457   1.242       .  S
O437        C468   1.265   1_545  A
O437       Mg461   2.286       .  S
C438        O440   1.287       .  A
C438        O452   1.280       .  A
C438        C616   1.511       .  S
O439        C467   1.274       .  A
O439       Mg441   2.298       .  S
O440       Mg472   2.359       .  S
Mg441       O447   2.125       .  S
Mg441       O455   2.258       .  S
Mg441       O443   2.330       .  S
C442        O480   1.270       .  A
C442        O448   1.258       .  A
C442        C592   1.471       .  S
O443        C450   1.276   1_565  A
H444        C457   1.081       .  S
C445        O460   1.279       .  A
C445        H470   1.081       .  S
C445        O459   1.268       .  A
O446        C469   1.273       .  A
O447       Mg461   2.119   1_565  S
O448       Mg478   2.255       .  S
C449        O462   1.269       .  A
C449        O454   1.255       .  A
C449        C712   1.506       .  S
C450        O477   1.260       .  A
C450        C796   1.477       .  S
Mg451       O458   2.143   1_545  S
Mg451       O452   2.327   1_545  S
Mg451       O453   2.367       .  S
Mg451       O480   2.328       .  S
Mg451       O459   2.208   1_545  S
O453        C457   1.283       .  A
O454       Mg461   2.224       .  S
O455        C474   1.272       .  A
O456        C476   1.297       .  A
O456       Mg472   2.473       .  S
O458       Mg472   2.163       .  S
O458        C469   1.239       .  S
O459       Mg478   2.299   1_565  S
O460       Mg472   2.362       .  S
Mg461       O477   2.203       .  S
O462       Mg478   2.373       .  S
H463        C468   1.081       .  S
O464       Mg472   2.161       .  S
O464        C467   1.241       .  S
H465        C467   1.081       .  S
H466        C469   1.081       .  S
O471       Mg478   2.334       .  S
C474        O479   1.273       .  A
C474        C928   1.470       .  S
O475        C476   1.261       .  A
C476        C700   1.508       .  S
O481       Mg483   2.158   1_554  S
O481       Mg489   2.170       .  S
O481        C516   1.233       .  S
C482        O495   1.233       .  S
C482        O519   1.265       .  A
C482        H521   1.081       .  S
Mg483       O512   2.135   1_556  S
Mg483       O527   2.298       .  S
Mg483       O523   2.245       .  S
Mg483       O494   2.285       .  S
O484       Mg526   2.184       .  S
O484       Mg509   2.127       .  S
O484        C505   1.240       .  S
O485        C516   1.265       .  A
O485       Mg509   2.280       .  S
C486        O488   1.288       .  A
C486        O500   1.267       .  A
C486        C844   1.498       .  S
O487        C515   1.268       .  A
O487       Mg489   2.292       .  S
O488       Mg520   2.376       .  S
Mg489       O495   2.105       .  S
Mg489       O503   2.225       .  S
Mg489       O491   2.365       .  S
C490        O528   1.270       .  A
C490        O496   1.270       .  A
C490        C625   1.477       .  S
O491        C498   1.281       .  A
H492        C505   1.081       .  S
C493        O507   1.240       .  S
C493        O508   1.274       .  A
C493        H518   1.081       .  S
O494        C517   1.269   1_556  A
O495       Mg509   2.164       .  S
O496       Mg526   2.264       .  S
C497        O510   1.271       .  A
C497        O502   1.258       .  A
C497        C757   1.460       .  S
C498        O525   1.265       .  A
C498        C856   1.506       .  S
Mg499       O506   2.134       .  S
Mg499       O507   2.144       .  S
Mg499       O500   2.235       .  S
Mg499       O501   2.301       .  S
Mg499       O528   2.273       .  S
O501        C505   1.274       .  A
O502       Mg509   2.193       .  S
O503        C522   1.273   1_554  A
O504        C524   1.297       .  A
O504       Mg520   2.459   1_556  S
O506       Mg520   2.165       .  S
O506        C517   1.237       .  S
O507       Mg526   2.130       .  S
O508       Mg520   2.313       .  S
Mg509       O525   2.212       .  S
O510       Mg526   2.287       .  S
H511        C516   1.081   1_556  S
O512       Mg520   2.147       .  S
O512        C515   1.234       .  S
H513        C515   1.081       .  S
H514        C517   1.081       .  S
O519       Mg526   2.287       .  S
C522        O527   1.277       .  A
C522        C604   1.473       .  S
O523        C524   1.274       .  A
C524        C580   1.525       .  S
O529       Mg531   2.089       .  S
O529       Mg537   2.142       .  S
O529        C564   1.234       .  S
C530        O543   1.240       .  S
C530        O567   1.278       .  A
C530        H569   1.081       .  S
Mg531       O560   2.137       .  S
Mg531       O575   2.306       .  S
Mg531       O571   2.174       .  S
Mg531       O542   2.301       .  S
O532       Mg574   2.183       .  S
O532       Mg557   2.231       .  S
O532        C553   1.265       .  A
O533        C564   1.264       .  A
O533       Mg557   2.272       .  S
C534        O536   1.283       .  A
C534        O548   1.282       .  A
C534        C577   1.507       .  S
O535        C563   1.270       .  A
O535       Mg537   2.288       .  S
O536       Mg568   2.343       .  S
Mg537       O543   2.103       .  S
Mg537       O551   2.257       .  S
Mg537       O539   2.328       .  S
C538        O576   1.273       .  A
C538        O544   1.268       .  A
C538        C640   1.470       .  S
O539        C546   1.279       .  A
H540        C553   1.081       .  S
C541        O555   1.240       .  S
C541        O556   1.279       .  A
C541        H566   1.081       .  S
O542        C565   1.275       .  A
O543       Mg557   2.127       .  S
O544       Mg574   2.289       .  S
C545        O558   1.274       .  A
C545        O550   1.251       .  A
C545        C964   1.506       .  S
C546        O573   1.265       .  A
C546        C685   1.481       .  S
Mg547       O554   2.166       .  S
Mg547       O555   2.157       .  S
Mg547       O548   2.349       .  S
Mg547       O549   2.353       .  S
Mg547       O576   2.298       .  S
O549        C553   1.276       .  A
O550       Mg557   2.226       .  S
O551        C570   1.274       .  A
O552        C572   1.294       .  A
O552       Mg568   2.446       .  S
O554       Mg568   2.169       .  S
O554        C565   1.241       .  S
O555       Mg574   2.211       .  S
O556       Mg568   2.345       .  S
Mg557       O573   2.193       .  S
O558       Mg574   2.411       .  S
H559        C564   1.081       .  S
O560       Mg568   2.145       .  S
O560        C563   1.237       .  S
H561        C563   1.081       .  S
H562        C565   1.081       .  S
O567       Mg574   2.337       .  S
C570        O575   1.275       .  A
C570        C589   1.475       .  S
O571        C572   1.262       .  A
C572        C949   1.491       .  S
C577        C578   1.414       .  A
C577        C582   1.408       .  A
C578        H583   1.084       .  S
C578        C579   1.424       .  A
C579        C580   1.420       .  A
C579        C586   1.442       .  S
C580        C581   1.418       .  A
C581        H584   1.084       .  S
C581        C582   1.404       .  A
C582        C585   1.445       .  S
C585        N587   1.157       .  T
C586        N588   1.157       .  T
C589        C590   1.402       .  A
C589        C594   1.412       .  A
C590        H595   1.085       .  S
C590        C591   1.400       .  A
C591        C592   1.412       .  A
C591        C598   1.444       .  S
C592        C593   1.402       .  A
C593        H596   1.085       .  S
C593        C594   1.400       .  A
C594        C597   1.444       .  S
C597        N599   1.157       .  T
C598        N600   1.157       .  T
C601        C602   1.397       .  A
C601        C606   1.406       .  A
C602        H607   1.085       .  S
C602        C603   1.393       .  A
C603        C604   1.413       .  A
C603        C610   1.444   1_556  S
C604        C605   1.407       .  A
C605        H608   1.085       .  S
C605        C606   1.397       .  A
C606        C609   1.445       .  S
C609        N611   1.157       .  T
C610        N612   1.157       .  T
C613        C614   1.400       .  A
C613        C618   1.416       .  A
C614        H619   1.085       .  S
C614        C615   1.406       .  A
C615        C616   1.423       .  A
C615        C622   1.445       .  S
C616        C617   1.410       .  A
C617        H620   1.084       .  S
C617        C618   1.417       .  A
C618        C621   1.443       .  S
C621        N623   1.157       .  T
C622        N624   1.157       .  T
C625        C626   1.403       .  A
C625        C630   1.410       .  A
C626        H631   1.085       .  S
C626        C627   1.404       .  A
C627        C628   1.416       .  A
C627        C634   1.440       .  S
C628        C629   1.409       .  A
C629        H632   1.085       .  S
C629        C630   1.395       .  A
C630        C633   1.446       .  S
C633        N635   1.157       .  T
C634        N636   1.156       .  T
C637        C638   1.402       .  A
C637        C642   1.410       .  A
C638        H643   1.085       .  S
C638        C639   1.402       .  A
C639        C640   1.411       .  A
C639        C646   1.444       .  S
C640        C641   1.401       .  A
C641        H644   1.085       .  S
C641        C642   1.397       .  A
C642        C645   1.445       .  S
C645        N647   1.157       .  T
C646        N648   1.157       .  T
C649        C650   1.413       .  A
C649        C654   1.415       .  A
C650        H655   1.084       .  S
C650        C651   1.423       .  A
C651        C652   1.421       .  A
C651        C658   1.441       .  S
C652        C653   1.413       .  A
C653        H656   1.082       .  S
C653        C654   1.406       .  A
C654        C657   1.446       .  S
C657        N659   1.158       .  T
C658        N660   1.157       .  T
C661        C662   1.419       .  A
C661        C666   1.405       .  A
C662        H667   1.085       .  S
C662        C663   1.411       .  A
C663        C664   1.408       .  A
C663        C670   1.442       .  S
C664        C665   1.420       .  A
C665        H668   1.085       .  S
C665        C666   1.411       .  A
C666        C669   1.443       .  S
C669        N671   1.157       .  T
C670        N672   1.157       .  T
C673        C674   1.407       .  A
C673        C678   1.419       .  A
C674        H679   1.085       .  S
C674        C675   1.412       .  A
C675        C676   1.418       .  A
C675        C682   1.443       .  S
C676        C677   1.406       .  A
C677        H680   1.085       .  S
C677        C678   1.407       .  A
C678        C681   1.444       .  S
C681        N683   1.157       .  T
C682        N684   1.157       .  T
C685        C686   1.412       .  A
C685        C690   1.410       .  A
C686        H691   1.085       .  S
C686        C687   1.396       .  A
C687        C688   1.410       .  A
C687        C694   1.445       .  S
C688        C689   1.410       .  A
C689        H692   1.085       .  S
C689        C690   1.394       .  A
C690        C693   1.445       .  S
C693        N695   1.157       .  T
C694        N696   1.158       .  T
C697        C698   1.423       .  A
C697        C702   1.400       .  A
C698        H703   1.085       .  S
C698        C699   1.410       .  A
C699        C700   1.404       .  A
C699        C706   1.443       .  S
C700        C701   1.425       .  A
C701        H704   1.085       .  S
C701        C702   1.407       .  A
C702        C705   1.442       .  S
C705        N707   1.157       .  T
C706        N708   1.157       .  T
C709        C710   1.409       .  A
C709        C714   1.412       .  A
C710        H715   1.084       .  S
C710        C711   1.417       .  A
C711        C712   1.418       .  A
C711        C718   1.442       .  S
C712        C713   1.409       .  A
C713        H716   1.085       .  S
C713        C714   1.401       .  A
C714        C717   1.445       .  S
C717        N719   1.157       .  T
C718        N720   1.157       .  T
C721        C722   1.414       .  A
C721        C726   1.419       .  A
C722        H727   1.084       .  S
C722        C723   1.427       .  A
C723        C724   1.424       .  A
C723        C730   1.442       .  S
C724        C725   1.413       .  A
C725        H728   1.084       .  S
C725        C726   1.413       .  A
C726        C729   1.444       .  S
C729        N731   1.157       .  T
C730        N732   1.157       .  T
C733        C734   1.427       .  A
C733        C738   1.404       .  A
C734        H739   1.084       .  S
C734        C735   1.412       .  A
C735        C736   1.404       .  A
C735        C742   1.443       .  S
C736        C737   1.424       .  A
C737        H740   1.085       .  S
C737        C738   1.411       .  A
C738        C741   1.442       .  S
C741        N743   1.157       .  T
C742        N744   1.157       .  T
C745        C746   1.403       .  A
C745        C750   1.416       .  A
C746        H751   1.085       .  S
C746        C747   1.404       .  A
C747        C748   1.421       .  A
C747        C754   1.445       .  S
C748        C749   1.409       .  A
C749        H752   1.084       .  S
C749        C750   1.414       .  A
C750        C753   1.443       .  S
C753        N755   1.157       .  T
C754        N756   1.157       .  T
C757        C758   1.397       .  A
C757        C762   1.413       .  A
C758        H763   1.085       .  S
C758        C759   1.398       .  A
C759        C760   1.416       .  A
C759        C766   1.442       .  S
C760        C761   1.401       .  A
C761        H764   1.085       .  S
C761        C762   1.391       .  A
C762        C765   1.445       .  S
C765        N767   1.157       .  T
C766        N768   1.156       .  T
C769        C770   1.404       .  A
C769        C774   1.410       .  A
C770        H775   1.085       .  S
C770        C771   1.402       .  A
C771        C772   1.415       .  A
C771        C778   1.442       .  S
C772        C773   1.408       .  A
C773        H776   1.085       .  S
C773        C774   1.395       .  A
C774        C777   1.445       .  S
C777        N779   1.157       .  T
C778        N780   1.157       .  T
C781        C782   1.409       .  A
C781        C786   1.415       .  A
C782        H787   1.085       .  S
C782        C783   1.403       .  A
C783        C784   1.408       .  A
C783        C790   1.444       .  S
C784        C785   1.401       .  A
C785        H788   1.085       .  S
C785        C786   1.400       .  A
C786        C789   1.445       .  S
C789        N791   1.157   1_565  T
C790        N792   1.157       .  T
C793        C794   1.408       .  A
C793        C798   1.407       .  A
C794        H799   1.085       .  S
C794        C795   1.395       .  A
C795        C796   1.409       .  A
C795        C802   1.445   1_545  S
C796        C797   1.412       .  A
C797        H800   1.084       .  S
C797        C798   1.394       .  A
C798        C801   1.445       .  S
C801        N803   1.157       .  T
C802        N804   1.157       .  T
C805        C806   1.402   1_554  A
C805        C810   1.419   1_545  A
C806        H811   1.085   1_556  S
C806        C807   1.391       .  A
C807        C808   1.416       .  A
C807        C814   1.447       .  S
C808        C809   1.398   1_545  A
C809        H812   1.085       .  S
C809        C810   1.397   1_556  A
C810        C813   1.445       .  S
C813        N815   1.157       .  T
C814        N816   1.157       .  T
C817        C818   1.399       .  A
C817        C822   1.410       .  A
C818        H823   1.085       .  S
C818        C819   1.401       .  A
C819        C820   1.417       .  A
C819        C826   1.445   1_554  S
C820        C821   1.402       .  A
C821        H824   1.085       .  S
C821        C822   1.400       .  A
C822        C825   1.444       .  S
C825        N827   1.157       .  T
C826        N828   1.157       .  T
C829        C830   1.402       .  A
C829        C834   1.419       .  A
C830        H835   1.084       .  S
C830        C831   1.411       .  A
C831        C832   1.421       .  A
C831        C838   1.444       .  S
C832        C833   1.404       .  A
C833        H836   1.084       .  S
C833        C834   1.413       .  A
C834        C837   1.443       .  S
C837        N839   1.157       .  T
C838        N840   1.157       .  T
C841        C842   1.421       .  A
C841        C846   1.405       .  A
C842        H847   1.085       .  S
C842        C843   1.408       .  A
C843        C844   1.404       .  A
C843        C850   1.443       .  S
C844        C845   1.418       .  A
C845        H848   1.085       .  S
C845        C846   1.409       .  A
C846        C849   1.442       .  S
C849        N851   1.157       .  T
C850        N852   1.157   1_554  T
C853        C854   1.404       .  A
C853        C858   1.406       .  A
C854        H859   1.085       .  S
C854        C855   1.409       .  A
C855        C856   1.418       .  A
C855        C862   1.442       .  S
C856        C857   1.416       .  A
C857        H860   1.084       .  S
C857        C858   1.404       .  A
C858        C861   1.444       .  S
C861        N863   1.157       .  T
C862        N864   1.157       .  T
C865        C866   1.402       .  A
C865        C870   1.408       .  A
C866        H871   1.085       .  S
C866        C867   1.402       .  A
C867        C868   1.415       .  A
C867        C874   1.444       .  S
C868        C869   1.404       .  A
C869        H872   1.085       .  S
C869        C870   1.398       .  A
C870        C873   1.445       .  S
C873        N875   1.157   1_565  T
C874        N876   1.157       .  T
C877        C878   1.408   1_655  A
C877        C882   1.404       .  A
C878        H883   1.085       .  S
C878        C879   1.396       .  A
C879        C880   1.410       .  A
C879        C886   1.445       .  S
C880        C881   1.413   1_455  A
C881        H884   1.085       .  S
C881        C882   1.392       .  A
C882        C885   1.445       .  S
C885        N887   1.157       .  T
C886        N888   1.158       .  T
C889        C890   1.407       .  A
C889        C894   1.415       .  A
C890        H895   1.085       .  S
C890        C891   1.395       .  A
C891        C892   1.408       .  A
C891        C898   1.445       .  S
C892        C893   1.402       .  A
C893        H896   1.085       .  S
C893        C894   1.402       .  A
C894        C897   1.443       .  S
C897        N899   1.157       .  T
C898        N900   1.157       .  T
C901        C902   1.418       .  A
C901        C906   1.410       .  A
C902        H907   1.085       .  S
C902        C903   1.406       .  A
C903        C904   1.406       .  A
C903        C910   1.444       .  S
C904        C905   1.417       .  A
C905        H908   1.085       .  S
C905        C906   1.418       .  A
C906        C909   1.441       .  S
C909        N911   1.157       .  T
C910        N912   1.157       .  T
C913        C914   1.407       .  A
C913        C918   1.413       .  A
C914        H919   1.085       .  S
C914        C915   1.408       .  A
C915        C916   1.417       .  A
C915        C922   1.444       .  S
C916        C917   1.410       .  A
C917        H920   1.084       .  S
C917        C918   1.409       .  A
C918        C921   1.443       .  S
C921        N923   1.157       .  T
C922        N924   1.157       .  T
C925        C926   1.410       .  A
C925        C930   1.417       .  A
C926        H931   1.085       .  S
C926        C927   1.398       .  A
C927        C928   1.405       .  A
C927        C934   1.445       .  S
C928        C929   1.401       .  A
C929        H932   1.085       .  S
C929        C930   1.404       .  A
C930        C933   1.444       .  S
C933        N935   1.157       .  T
C934        N936   1.157       .  T
C937        C938   1.404       .  A
C937        C942   1.403   1_455  A
C938        H943   1.086       .  S
C938        C939   1.392       .  A
C939        C940   1.413       .  A
C939        C946   1.446       .  S
C940        C941   1.412       .  A
C941        H944   1.085   1_455  S
C941        C942   1.396   1_455  A
C942        C945   1.444       .  S
C945        N947   1.157       .  T
C946        N948   1.158       .  T
C949        C950   1.416       .  A
C949        C954   1.404       .  A
C950        H955   1.085       .  S
C950        C951   1.413       .  A
C951        C952   1.410       .  A
C951        C958   1.442       .  S
C952        C953   1.421       .  A
C953        H956   1.084       .  S
C953        C954   1.406       .  A
C954        C957   1.444       .  S
C957        N959   1.157       .  T
C958        N960   1.157       .  T
C961        C962   1.400       .  A
C961        C966   1.419       .  A
C962        H967   1.085       .  S
C962        C963   1.403       .  A
C963        C964   1.424       .  A
C963        C970   1.445       .  S
C964        C965   1.407       .  A
C965        H968   1.084       .  S
C965        C966   1.414       .  A
C966        C969   1.444       .  S
C969        N971   1.157       .  T
C970        N972   1.157       .  T
C973        C974   1.399       .  A
C973        C978   1.407       .  A
C974        H979   1.085       .  S
C974        C975   1.397       .  A
C975        C976   1.413       .  A
C975        C982   1.444       .  S
C976        C977   1.406       .  A
C977        H980   1.085       .  S
C977        C978   1.398       .  A
C978        C981   1.444       .  S
C981        N983   1.157       .  T
C982        N984   1.157       .  T
C985        C986   1.413       .  A
C985        C990   1.412       .  A
C986        H991   1.085       .  S
C986        C987   1.408       .  A
C987        C988   1.409       .  A
C987        C994   1.444       .  S
C988        C989   1.411       .  A
C989        H992   1.085       .  S
C989        C990   1.412       .  A
C990        C993   1.443       .  S
C993        N995   1.157       .  T
C994        N996   1.157       .  T
C997        C998   1.403       .  A
C997       C1002   1.416       .  A
C998       H1003   1.085       .  S
C998        C999   1.400       .  A
C999       C1000   1.411       .  A
C999       C1006   1.444       .  S
C1000      C1001   1.401       .  A
C1001      H1004   1.085       .  S
C1001      C1002   1.399       .  A
C1002      C1005   1.446       .  S
C1005      N1007   1.158       .  T
C1006      N1008   1.157       .  T
