geometry optimzed in LAMMPS
_audit_creation_date              2020-12-01 
_audit_creation_method            'lammps2cif' 
_symmetry_space_group_name_H-M    'P1' 
_symmetry_Int_Tables_number       1 
_symmetry_cell_setting            triclinic 
loop_ 
_symmetry_equiv_pos_as_xyz 
  x,y,z 
_cell_length_a                    45.16746499 
_cell_length_b                    45.14521228613301 
_cell_length_c                    92.87604574818371 
_cell_angle_alpha                 90.13202396181634 
_cell_angle_beta                  89.8975388051792 
_cell_angle_gamma                 120.60016964388082 
loop_ 
_atom_site_label 
_atom_site_type_symbol 
_atom_site_fract_x 
_atom_site_fract_y 
_atom_site_fract_z 
_atom_site_charge 
O1          O  0.92964390  0.32317152  0.50016836    -0.81200
O2          O  0.77451528  0.26939585  0.49925433    -0.65900
O3          O  0.86013478  0.27506434  0.50682295    -1.12500
C4          C  0.85149355  0.23219707  0.46016701     1.05700
O5          O  0.75231796  0.22124396  0.48627202    -0.79100
O6          O  0.79082042  0.19243033  0.49026204    -0.66700
Ni7        Ni  0.89719022  0.31505307  0.51548112     1.34900
C8          C  0.81691963  0.19139920  0.49449694     0.84400
O9          O  0.81419383  0.28676897  0.52274899    -0.79700
O10         O  0.86821618  0.31010141  0.53147037    -0.89900
C11         C  0.74940846  0.24429855  0.49287694     0.84000
O12         O  0.88897769  0.34963935  0.50782123    -0.68100
O13         O  0.81956561  0.21468859  0.46325170    -0.87400
C14         C  0.86379135  0.34832335  0.50115174     0.84800
C15         C  0.83677265  0.30193864  0.53261621     1.06400
H16         H  0.82800008  0.28046964  0.47760444     0.38200
O17         O  0.82391660  0.26198834  0.48405341    -1.10100
O18         O  0.84769864  0.21640155  0.49271826    -0.66700
Ni19       Ni  0.86694145  0.26490092  0.48768352     1.26300
O20         O  0.83720917  0.32032917  0.49752532    -0.67000
O21         O  0.87309019  0.25603447  0.46825679    -0.79200
C22         C  0.93568629  0.30090552  0.49466470     0.84200
O23         O  0.91103560  0.27092998  0.49183431    -0.66400
Ni24       Ni  0.78842441  0.22038246  0.47571010     1.27400
Ni25       Ni  0.81780073  0.27338687  0.50336430     1.26100
H26         H  0.85533095  0.25587373  0.51296973     0.38700
O27         O  0.98307423  0.26724368  0.31949004    -0.81200
O28         O  0.92264324  0.10816448  0.31409747    -0.65900
O29         O  0.93495922  0.19848793  0.31183680    -1.12500
C30         C  0.90854831  0.17930964  0.36218618     1.05700
O31         O  0.87455800  0.09029857  0.32605649    -0.79100
O32         O  0.85213664  0.13008590  0.33779279    -0.66700
Ni33       Ni  0.97606191  0.23581076  0.30391097     1.34900
C34         C  0.85154070  0.15516803  0.33196018     0.84400
O35         O  0.93817697  0.15234371  0.29218459    -0.79700
O36         O  0.97322763  0.20869956  0.28739174    -0.89900
C37         C  0.89526436  0.08370103  0.31953508     0.84000
O38         O  0.00823341  0.22591109  0.31271451    -0.68100
O39         O  0.89776603  0.14764405  0.35960598    -0.87400
C40         C  0.00587287  0.19742886  0.31581662     0.84800
C41         C  0.95852250  0.17695757  0.28391797     1.06400
H42         H  0.94468659  0.16156011  0.33756072     0.38200
O43         O  0.92420549  0.15774403  0.33263729    -1.10100
O44         O  0.87850744  0.18286277  0.32812565    -0.66700
Ni45       Ni  0.92693550  0.20113552  0.33194668     1.26300
O46         O  0.97758553  0.16901237  0.31584219    -0.67000
O47         O  0.91927282  0.20230210  0.35233814    -0.79200
C48         C  0.96132491  0.27161117  0.32648950     0.84200
O49         O  0.93265247  0.24609502  0.33034960    -0.66400
Ni50       Ni  0.88733334  0.12039869  0.34247278     1.27400
Ni51       Ni  0.93014248  0.15382991  0.31244272     1.26100
H52         H  0.91593368  0.19668696  0.30636098     0.38700
O53         O  0.80375718  0.75252468  0.32070580    -0.81200
O54         O  0.95969433  0.85945320  0.31690194    -0.65900
O55         O  0.87234230  0.77745735  0.31261209    -1.12500
C56         C  0.88914005  0.76365492  0.36245665     1.05700
O57         O  0.97958196  0.83031413  0.32822056    -0.79100
O58         O  0.94212351  0.76532942  0.33823347    -0.66700
Ni59       Ni  0.83399588  0.77869596  0.30503821     1.34900
C60         C  0.91922383  0.73965918  0.33124738     0.84400
O61         O  0.91720567  0.83139159  0.29433745    -0.79700
O62         O  0.86071584  0.80483124  0.28873489    -0.89900
C63         C  0.98464027  0.85780453  0.32226053     0.84000
O64         O  0.84143270  0.82026906  0.31381060    -0.68100
O65         O  0.92022803  0.78781323  0.36064331    -0.87400
C66         C  0.86883552  0.84771153  0.31729078     0.84800
C67         C  0.89246544  0.82533240  0.28585964     1.06400
H68         H  0.90500791  0.82116978  0.33951384     0.38200
O69         O  0.91074395  0.80640451  0.33415519    -1.10100
O70         O  0.89101277  0.73707659  0.32718542    -0.66700
Ni71       Ni  0.86919563  0.76336329  0.33221999     1.26300
O72         O  0.89769221  0.84937584  0.31836154    -0.67000
O73         O  0.86740675  0.75091795  0.35216837    -0.79200
C74         C  0.79961114  0.72504434  0.32643888     0.84200
O75         O  0.82547368  0.72215868  0.32945278    -0.66400
Ni76       Ni  0.94848717  0.80869212  0.34405846     1.27400
Ni77       Ni  0.91534463  0.81938002  0.31429401     1.26100
H78         H  0.87581751  0.76205861  0.30654304     0.38700
O79         O  0.75309283  0.65216760  0.50325690    -0.81200
O80         O  0.80400786  0.55146408  0.50357827    -0.65900
O81         O  0.80236774  0.63419134  0.50977088    -1.12500
C82         C  0.83853477  0.65648133  0.46138055     1.05700
O83         O  0.85550643  0.58065784  0.49366731    -0.79100
O84         O  0.88462673  0.64873044  0.49146435    -0.66700
Ni85       Ni  0.76451352  0.63284187  0.51932027     1.34900
C86         C  0.88537202  0.67634085  0.49470986     0.84400
O87         O  0.78840280  0.57667261  0.52685575    -0.79700
O88         O  0.77341367  0.61356609  0.53595654    -0.89900
C89         C  0.83075336  0.55265753  0.49854813     0.84000
O90         O  0.72822174  0.58751602  0.51404976    -0.68100
O91         O  0.85496034  0.64142057  0.46482807    -0.87400
C92         C  0.72751085  0.56333346  0.50673189     0.84800
C93         C  0.77760225  0.58774597  0.53710761     1.06400
H94         H  0.79455723  0.59204440  0.48157880     0.38200
O95         O  0.81321772  0.60757121  0.48779877    -1.10100
O96         O  0.85914976  0.67995727  0.49378950    -0.66700
Ni97       Ni  0.81033644  0.64805254  0.49000636     1.26300
O98         O  0.75453599  0.56525989  0.50165944    -0.67000
O99         O  0.81802781  0.65929024  0.46999051    -0.79200
C100        C  0.77357738  0.68031494  0.49693387     0.84200
O101        O  0.80305413  0.68618995  0.49289592    -0.66400
Ni102      Ni  0.85354886  0.61126594  0.47982775     1.27400
Ni103      Ni  0.80186269  0.59205446  0.50724095     1.26100
H104        H  0.82267310  0.64946391  0.51527015     0.38700
O105        O  0.31414927  0.09423718  0.31715480    -0.81200
O106        O  0.20980373  0.14141068  0.31839668    -0.65900
O107        O  0.29248828  0.14099365  0.31075067    -1.12500
C108        C  0.31897606  0.17792793  0.35914260     1.05700
O109        O  0.23847041  0.19247111  0.32894291    -0.79100
O110        O  0.30672203  0.22383693  0.33080279    -0.66700
Ni111      Ni  0.29145009  0.10292364  0.30151337     1.34900
C112        C  0.33329726  0.22503003  0.32565717     0.84400
O113        O  0.23324940  0.12515076  0.29460199    -0.79700
O114        O  0.26920492  0.10911831  0.28525489    -0.89900
C115        C  0.21073045  0.16767943  0.32389007     0.84000
O116        O  0.24741113  0.06639681  0.30793853    -0.68100
O117        O  0.30129361  0.19232815  0.35690005    -0.87400
C118        C  0.22307399  0.06569308  0.31510724     0.84800
C119        C  0.24325729  0.11313164  0.28437394     1.06400
H120        H  0.25322197  0.13258131  0.33962081     0.38200
O121        O  0.26753056  0.15168065  0.33335394    -1.10100
O122        O  0.33784461  0.19932452  0.32555975    -0.66700
Ni123      Ni  0.30864313  0.15063473  0.33014356     1.26300
O124        O  0.22451935  0.09271142  0.31990211    -0.67000
O125        O  0.32270120  0.15943286  0.34980140    -0.79200
C126        C  0.34283397  0.11658259  0.32263388     0.84200
O127        O  0.34760722  0.14580026  0.32629064    -0.66400
Ni128      Ni  0.27010279  0.19077011  0.34227899     1.27400
Ni129      Ni  0.25031562  0.13976058  0.31405473     1.26100
H130        H  0.30675564  0.16095389  0.30488279     0.38700
O131        O  0.41673787  0.14210046  0.49826367    -0.81200
O132        O  0.52168089  0.29927628  0.50465394    -0.65900
O133        O  0.44137818  0.20989273  0.50734182    -1.12500
C134        C  0.42858610  0.23054424  0.45774547     1.05700
O135        O  0.49316255  0.31950499  0.49301896    -0.79100
O136        O  0.42884525  0.28149121  0.48271651    -0.66700
Ni137      Ni  0.44469682  0.17159971  0.51375368     1.34900
C138        C  0.40355412  0.25803666  0.48964161     0.84400
O139        O  0.49387326  0.25394975  0.52638261    -0.79700
O140        O  0.47226478  0.19718613  0.53002802    -0.89900
C141        C  0.51973483  0.32451161  0.49981713     0.84000
O142        O  0.48531482  0.18104173  0.50338606    -0.68100
O143        O  0.45240319  0.26162428  0.45989704    -0.87400
C144        C  0.51217915  0.20962699  0.50056931     0.84800
C145        C  0.49022928  0.22862486  0.53392839     1.06400
H146        H  0.48550053  0.24583421  0.48098777     0.38200
O147        O  0.47031836  0.25084091  0.48643109    -1.10100
O148        O  0.40117982  0.22969071  0.49332483    -0.66700
Ni149      Ni  0.42771479  0.20859358  0.48772418     1.26300
O150        O  0.51327120  0.23816040  0.50170941    -0.67000
O151        O  0.41557609  0.20822457  0.46780951    -0.79200
C152        C  0.38878357  0.13852827  0.49337134     0.84200
O153        O  0.38664583  0.16460374  0.48993022    -0.66400
Ni154      Ni  0.47248755  0.28896133  0.47687219     1.27400
Ni155      Ni  0.48237384  0.25391610  0.50640909     1.26100
H156        H  0.42531059  0.21173268  0.51362595     0.38700
O157        O  0.14153891  0.41466177  0.97949320    -0.81200
O158        O  0.29641590  0.52217742  0.97981379    -0.65900
O159        O  0.21082734  0.43906836  0.97364352    -1.12500
C160        C  0.22340075  0.42071031  0.02342783     1.05700
O161        O  0.31663253  0.49233530  0.99030869    -0.79100
O162        O  0.27916584  0.42578761  0.99680113    -0.66700
Ni163      Ni  0.17354745  0.43929485  0.96421376     1.34900
C164        C  0.25420783  0.39947707  0.99100863     0.84400
O165        O  0.25611272  0.49639627  0.95642884    -0.79700
O166        O  0.20206462  0.46336338  0.94804693    -0.89900
C167        C  0.32135840  0.52040455  0.98512752     0.84000
O168        O  0.18003057  0.48207623  0.97146989    -0.68100
O169        O  0.25555398  0.44112811  0.02132573    -0.87400
C170        C  0.20504999  0.50781845  0.97764928     0.84800
C171        C  0.23315806  0.48773345  0.94666309     1.06400
H172        H  0.24248934  0.48143398  0.00161397     0.38200
O173        O  0.24742540  0.46658820  0.99586886    -1.10100
O174        O  0.22463615  0.39600919  0.98921175    -0.66700
Ni175      Ni  0.20496894  0.42457054  0.99344567     1.26300
O176        O  0.23279227  0.50878351  0.98096786    -0.67000
O177        O  0.20085269  0.41221636  0.01351697    -0.79200
C178        C  0.13623785  0.38666329  0.98506980     0.84200
O179        O  0.16097757  0.38423133  0.99016246    -0.66400
Ni180      Ni  0.28457345  0.46650239  0.00533535     1.27400
Ni181      Ni  0.25296359  0.48154763  0.97619623     1.26100
H182        H  0.21596381  0.42421393  0.96800644     0.38700
O183        O  0.08284648  0.31578359  0.16263974    -0.81200
O184        O  0.13170221  0.21331731  0.16722963    -0.65900
O185        O  0.12923749  0.29615681  0.17158571    -1.12500
C186        C  0.17086107  0.31706702  0.12353317     1.05700
O187        O  0.18412568  0.24307952  0.15821763    -0.79100
O188        O  0.21468931  0.31028078  0.15330819    -0.66700
Ni189      Ni  0.09041958  0.29581563  0.17953793     1.34900
C190        C  0.21481087  0.33685689  0.15777572     0.84400
O191        O  0.11217183  0.23890065  0.18927622    -0.79700
O192        O  0.09530652  0.27565358  0.19684716    -0.89900
C193        C  0.15948071  0.21509262  0.16318254     0.84000
O194        O  0.05481823  0.25101586  0.17367269    -0.68100
O195        O  0.18388325  0.29854892  0.12674782    -0.87400
C196        C  0.05480584  0.22588103  0.16749140     0.84800
C197        C  0.09883872  0.24955909  0.19865626     1.06400
H198        H  0.12404063  0.25402758  0.14406241     0.38200
O199        O  0.14250280  0.26918354  0.15044365    -1.10100
O200        O  0.18862108  0.34047943  0.15735153    -0.66700
Ni201      Ni  0.14081129  0.31037306  0.15199003     1.26300
O202        O  0.08223212  0.22713240  0.16341067    -0.67000
O203        O  0.15218582  0.32259555  0.13217090    -0.79200
C204        C  0.10531369  0.34422902  0.15708190     0.84200
O205        O  0.13508526  0.34940857  0.15422568    -0.66400
Ni206      Ni  0.18233838  0.27087059  0.14293124     1.27400
Ni207      Ni  0.12875963  0.25395177  0.16987274     1.26100
H208        H  0.14856485  0.31118190  0.17762258     0.38700
O209        O  0.64670300  0.75647338  0.98504371    -0.81200
O210        O  0.54219416  0.80091310  0.98609726    -0.65900
O211        O  0.62740533  0.80511022  0.97965217    -1.12500
C212        C  0.64796649  0.83787801  0.02807772     1.05700
O213        O  0.56796012  0.85156408  0.99721460    -0.79100
O214        O  0.63725449  0.88310513  0.99741053    -0.66700
Ni215      Ni  0.62844673  0.76955732  0.96920284     1.34900
C216        C  0.66595241  0.88530743  0.99504316     0.84400
O217        O  0.56904070  0.78836445  0.96263561    -0.79700
O218        O  0.60998363  0.78025358  0.95283241    -0.89900
C219        C  0.54120558  0.82588532  0.99189697     0.84000
O220        O  0.58333843  0.73169505  0.97344782    -0.68100
O221        O  0.63431344  0.85557329  0.02441877    -0.87400
C222        C  0.55912282  0.72885066  0.98138058     0.84800
C223        C  0.58167644  0.78004425  0.95210325     1.06400
H224        H  0.58348500  0.79348870  0.00794841     0.38200
O225        O  0.59883800  0.81249549  0.00184186    -1.10100
O226        O  0.67085565  0.86006891  0.99668932    -0.66700
Ni227      Ni  0.63988037  0.81090861  0.99953020     1.26300
O228        O  0.56032807  0.75446085  0.98759146    -0.67000
O229        O  0.64971726  0.81656044  0.01962078    -0.79200
C230        C  0.67395357  0.77651225  0.99200643     0.84200
O231        O  0.67887407  0.80525861  0.99656395    -0.66400
Ni232      Ni  0.60179140  0.85222259  0.01004711     1.27400
Ni233      Ni  0.58414086  0.80187378  0.98229318     1.26100
H234        H  0.64219998  0.82635485  0.97460651     0.38700
O235        O  0.74994976  0.80934290  0.16759156    -0.81200
O236        O  0.84821742  0.96424656  0.17199559    -0.65900
O237        O  0.76827709  0.87572108  0.17655651    -1.12500
C238        C  0.74857835  0.89306876  0.12788805     1.05700
O239        O  0.81688180  0.98411610  0.16249636    -0.79100
O240        O  0.75012953  0.94427757  0.15561193    -0.66700
Ni241      Ni  0.77119267  0.83830479  0.18413223     1.34900
C242        C  0.72436726  0.91776293  0.16086653     0.84400
O243        O  0.82440818  0.92001442  0.19417900    -0.79700
O244        O  0.79285207  0.86444887  0.20113233    -0.89900
C245        C  0.84500554  0.98924040  0.16786037     0.84000
O246        O  0.81536120  0.84920725  0.17701812    -0.68100
O247        O  0.76775882  0.92523492  0.13045894    -0.87400
C248        C  0.84028196  0.87586588  0.17139818     0.84800
C249        C  0.81628043  0.89574256  0.20324746     1.06400
H250        H  0.80928775  0.91258120  0.14908401     0.38200
O251        O  0.79394582  0.91587682  0.15524939    -1.10100
O252        O  0.72269044  0.88881038  0.16225297    -0.66700
Ni253      Ni  0.75331283  0.87195411  0.15707543     1.26300
O254        O  0.83894820  0.90268839  0.16860514    -0.67000
O255        O  0.74053713  0.86969782  0.13732267    -0.79200
C256        C  0.72134859  0.80228227  0.16207912     0.84200
O257        O  0.71496401  0.82614126  0.15958532    -0.66400
Ni258      Ni  0.79198449  0.95309233  0.14692785     1.27400
Ni259      Ni  0.80930030  0.91928814  0.17469697     1.26100
H260        H  0.75275162  0.87876277  0.18271285     0.38700
O261        O  0.31228549  0.92403294  0.99090484    -0.81200
O262        O  0.25450673  0.76729018  0.98172851    -0.65900
O263        O  0.26677695  0.85754377  0.97999623    -1.12500
C264        C  0.22339379  0.83290414  0.02811000     1.05700
O265        O  0.20396126  0.74469432  0.99245531    -0.79100
O266        O  0.17708606  0.78393272  0.99919977    -0.66700
Ni267      Ni  0.31046703  0.89603987  0.97480491     1.34900
C268        C  0.17832631  0.81047403  0.99397531     0.84400
O269        O  0.27629407  0.81501624  0.96064506    -0.79700
O270        O  0.31301732  0.87213236  0.95817736    -0.89900
C271        C  0.22694185  0.74116185  0.98610458     0.84000
O272        O  0.33950930  0.88413575  0.98507521    -0.68100
O273        O  0.21155228  0.80133420  0.02494595    -0.87400
C274        C  0.33606043  0.85485857  0.98735714     0.84800
C275        C  0.29957856  0.84115122  0.95375813     1.06400
H276        H  0.26853845  0.81682074  0.00622425     0.38200
O277        O  0.24972845  0.81379244  0.00023073    -1.10100
O278        O  0.20571336  0.83984157  0.99323482    -0.66700
Ni279      Ni  0.25270992  0.85759816  0.99938670     1.26300
O280        O  0.30759333  0.82700286  0.98610927    -0.67000
O281        O  0.23968585  0.85713140  0.01907633    -0.79200
C282        C  0.28811592  0.92824585  0.99541900     0.84200
O283        O  0.25837299  0.90249426  0.99759966    -0.66400
Ni284      Ni  0.20966258  0.77524794  0.00815025     1.27400
Ni285      Ni  0.26175319  0.81288981  0.98042663     1.26100
H286        H  0.24980977  0.85687519  0.97345264     0.38700
O287        O  0.25577388  0.98244574  0.16676406    -0.81200
O288        O  0.10254597  0.93315108  0.16761388    -0.65900
O289        O  0.18720911  0.93621200  0.17460234    -1.12500
C290        C  0.17283329  0.89443048  0.12660865     1.05700
O291        O  0.07963528  0.88102689  0.15806731    -0.79100
O292        O  0.11636929  0.84991640  0.15493797    -0.66700
Ni293      Ni  0.22545959  0.97572733  0.18277587     1.34900
C294        C  0.14170418  0.84935172  0.16049402     0.84400
O295        O  0.14461135  0.95269560  0.19077160    -0.79700
O296        O  0.19817900  0.97161526  0.19932289    -0.89900
C297        C  0.07669538  0.90581677  0.16282499     0.84000
O298        O  0.21772141  0.01124178  0.17569237    -0.68100
O299        O  0.14074904  0.88203513  0.12892218    -0.87400
C300        C  0.19309753  0.01074648  0.16885417     0.84800
C301        C  0.16777036  0.96656055  0.20055208     1.06400
H302        H  0.15467233  0.94115612  0.14592072     0.38200
O303        O  0.14971525  0.92252827  0.15243940    -1.10100
O304        O  0.17201750  0.87567573  0.16109253    -0.66700
Ni305      Ni  0.19202789  0.92374792  0.15545145     1.26300
O306        O  0.16652888  0.98300147  0.16492492    -0.67000
O307        O  0.19576423  0.91197925  0.13597620    -0.79200
C308        C  0.26113564  0.95965384  0.16128546     0.84200
O309        O  0.23619898  0.92936223  0.15909909    -0.66400
Ni310      Ni  0.11202864  0.88304884  0.14405363     1.27400
Ni311      Ni  0.14569359  0.93638649  0.17155017     1.26100
H312        H  0.18193746  0.91718467  0.18094081     0.38700
O313        O  0.42222245  0.91707118  0.32468001    -0.81200
O314        O  0.57712174  0.02414485  0.32246706    -0.65900
O315        O  0.49034878  0.94155515  0.31773986    -1.12500
C316        C  0.51256507  0.92007954  0.36542132     1.05700
O317        O  0.59706753  0.99070368  0.32898933    -0.79100
O318        O  0.55954392  0.92313296  0.33640977    -0.66700
Ni319      Ni  0.45227692  0.94107727  0.30886745     1.34900
C320        C  0.53154630  0.89694070  0.33241582     0.84400
O321        O  0.53360092  0.99819112  0.30015580    -0.79700
O322        O  0.47947019  0.96483455  0.29226596    -0.89900
C323        C  0.60242994  0.01984278  0.32473911     0.84000
O324        O  0.45896216  0.98267851  0.31694782    -0.68100
O325        O  0.54411001  0.94033214  0.36208457    -0.87400
C326        C  0.48285445  0.00750714  0.32391300     0.84800
C327        C  0.51093693  0.98783698  0.29024685     1.06400
H328        H  0.52813890  0.98334883  0.34555903     0.38200
O329        O  0.53066203  0.96816932  0.33897522    -1.10100
O330        O  0.50343781  0.89677353  0.33187688    -0.66700
Ni331      Ni  0.48721419  0.92693455  0.33741957     1.26300
O332        O  0.51230435  0.01080645  0.32608636    -0.67000
O333        O  0.48717242  0.91352478  0.35718390    -0.79200
C334        C  0.41757800  0.88892060  0.32970508     0.84200
O335        O  0.44261307  0.88721654  0.33489353    -0.66400
Ni336      Ni  0.56914068  0.96544123  0.34530661     1.27400
Ni337      Ni  0.53268796  0.98396424  0.31971450     1.26100
H338        H  0.49516608  0.92692982  0.31178109     0.38700
O339        O  0.53891094  0.15738003  0.15551376    -0.81200
O340        O  0.58671731  0.05182791  0.15802742    -0.65900
O341        O  0.58405772  0.13469545  0.16236121    -1.12500
C342        C  0.62482202  0.15675779  0.11458095     1.05700
O343        O  0.63839868  0.08088878  0.14817228    -0.79100
O344        O  0.66872108  0.14932879  0.14382586    -0.66700
Ni345      Ni  0.54658426  0.13512664  0.17147145     1.34900
C346        C  0.66827298  0.17622705  0.14745284     0.84400
O347        O  0.57257176  0.08019661  0.18050358    -0.79700
O348        O  0.55158289  0.11316110  0.18817819    -0.89900
C349        C  0.61425711  0.05345846  0.15374612     0.84000
O350        O  0.51058630  0.09229807  0.16443203    -0.68100
O351        O  0.63746287  0.13794623  0.11771648    -0.87400
C352        C  0.50945366  0.06692580  0.15803889     0.84800
C353        C  0.56063339  0.09096914  0.19039589     1.06400
H354        H  0.57642545  0.09093522  0.13477142     0.38200
O355        O  0.59519936  0.10664631  0.14090142    -1.10100
O356        O  0.64116847  0.17808662  0.14715291    -0.66700
Ni357      Ni  0.59352101  0.14806904  0.14258456     1.26300
O358        O  0.53586456  0.06467536  0.15530684    -0.67000
O359        O  0.60437579  0.16074547  0.12274209    -0.79200
C360        C  0.56197734  0.18557036  0.15009474     0.84200
O361        O  0.58932964  0.18790888  0.14521932    -0.66400
Ni362      Ni  0.63592826  0.10952653  0.13341355     1.27400
Ni363      Ni  0.58385370  0.09254823  0.16058144     1.26100
H364        H  0.60409334  0.15000541  0.16799393     0.38700
O365        O  0.15397079  0.54641051  0.32349649    -0.81200
O366        O  0.05320295  0.60042234  0.32116190    -0.65900
O367        O  0.13294076  0.59261435  0.31650238    -1.12500
C368        C  0.15835313  0.64000219  0.36345341     1.05700
O369        O  0.08783525  0.65460907  0.32735484    -0.79100
O370        O  0.15592962  0.68236715  0.33312748    -0.66700
Ni371      Ni  0.13109591  0.55374660  0.30764643     1.34900
C372        C  0.18122465  0.67896434  0.32964437     0.84400
O373        O  0.07720861  0.58081690  0.29906065    -0.79700
O374        O  0.10846670  0.55833704  0.29099588    -0.89900
C375        C  0.05861152  0.63069303  0.32296945     0.84000
O376        O  0.08818669  0.51957242  0.31540302    -0.68100
O377        O  0.14059300  0.65347920  0.35971694    -0.87400
C378        C  0.06425764  0.52003538  0.32237006     0.84800
C379        C  0.08655496  0.56785605  0.28908814     1.06400
H380        H  0.09253778  0.59206257  0.34432682     0.38200
O381        O  0.10835734  0.60906799  0.33758881    -1.10100
O382        O  0.17995529  0.65031770  0.33029473    -0.66700
Ni383      Ni  0.14785681  0.60430985  0.33612415     1.26300
O384        O  0.06354465  0.54742088  0.32503989    -0.67000
O385        O  0.16185107  0.61833675  0.35578321    -0.79200
C386        C  0.18255326  0.56917329  0.32876223     0.84200
O387        O  0.18581254  0.59690512  0.33376374    -0.66400
Ni388      Ni  0.11427459  0.65232106  0.34325956     1.27400
Ni389      Ni  0.09203951  0.59461749  0.31847094     1.26100
H390        H  0.14821664  0.61185159  0.31048547     0.38700
O391        O  0.90610533  0.41902338  0.15863788    -0.81200
O392        O  0.00823778  0.57491466  0.15946107    -0.65900
O393        O  0.92652488  0.48769769  0.16410249    -1.12500
C394        C  0.90454661  0.50220201  0.11597507     1.05700
O395        O  0.97961989  0.59671796  0.14875026    -0.79100
O396        O  0.90976309  0.55448945  0.14472003    -0.66700
Ni397      Ni  0.92662124  0.45120477  0.17425812     1.34900
C398        C  0.88298863  0.52596329  0.14788306     0.84400
O399        O  0.98055744  0.53364816  0.18210947    -0.79700
O400        O  0.94692739  0.48023836  0.19074288    -0.89900
C401        C  0.00632442  0.60056236  0.15515798     0.84000
O402        O  0.97032423  0.45941927  0.16812044    -0.68100
O403        O  0.92200972  0.53417130  0.11904943    -0.87400
C404        C  0.99480660  0.48297876  0.16091419     0.84800
C405        C  0.96932442  0.51199246  0.19243477     1.06400
H406        H  0.97074630  0.52409855  0.13645126     0.38200
O407        O  0.95446995  0.52644317  0.14239875    -1.10100
O408        O  0.88237032  0.49751165  0.14781562    -0.66700
Ni409      Ni  0.91409864  0.48193024  0.14416941     1.26300
O410        O  0.99627170  0.51089171  0.15727865    -0.67000
O411        O  0.90214158  0.47839572  0.12415507    -0.79200
C412        C  0.87879176  0.41228188  0.15204721     0.84200
O413        O  0.87557669  0.43651048  0.14686888    -0.66400
Ni414      Ni  0.95034569  0.56311621  0.13446293     1.27400
Ni415      Ni  0.96817020  0.53063097  0.16214533     1.26100
H416        H  0.91075584  0.49228475  0.16930890     0.38700
O417        O  0.52285315  0.65244132  0.32498463    -0.81200
O418        O  0.47141458  0.49884974  0.32521070    -0.65900
O419        O  0.47479509  0.58384149  0.31965351    -1.12500
C420        C  0.43252792  0.56915792  0.36670452     1.05700
O421        O  0.41972526  0.47510278  0.33542511    -0.79100
O422        O  0.39082449  0.51603586  0.33617976    -0.66700
Ni423      Ni  0.51128709  0.62039899  0.30932523     1.34900
C424        C  0.39209322  0.54436862  0.33367746     0.84400
O425        O  0.48573119  0.53923381  0.30222115    -0.79700
O426        O  0.50172489  0.59101229  0.29289990    -0.89900
C427        C  0.44382350  0.47261003  0.32945311     0.84000
O428        O  0.54754841  0.61270136  0.31487530    -0.68100
O429        O  0.41697428  0.53751934  0.36305655    -0.87400
C430        C  0.54916249  0.59025364  0.32251244     0.84800
C431        C  0.49473823  0.55997180  0.29156691     1.06400
H432        H  0.48102728  0.54829136  0.34796115     0.38200
O433        O  0.46299203  0.54582081  0.34159772    -1.10100
O434        O  0.41944092  0.57336244  0.33519010    -0.66700
Ni435      Ni  0.46694574  0.58984231  0.33944417     1.26300
O436        O  0.52262864  0.56352393  0.32736942    -0.67000
O437        O  0.45692214  0.59309434  0.35936668    -0.79200
C438        C  0.50146853  0.65911506  0.33086295     0.84200
O439        O  0.47388619  0.63489491  0.33630618    -0.66400
Ni440      Ni  0.42041113  0.50876681  0.34861037     1.27400
Ni441      Ni  0.47454134  0.54203963  0.32205344     1.26100
H442        H  0.45428978  0.57819256  0.31427381     0.38700
O443        O  0.64057656  0.51727984  0.16314011    -0.81200
O444        O  0.48786178  0.47366863  0.16076282    -0.65900
O445        O  0.57032071  0.47229700  0.16731302    -1.12500
C446        C  0.55681344  0.43619122  0.11874036     1.05700
O447        O  0.46440373  0.42178881  0.15096186    -0.79100
O448        O  0.50129704  0.38995131  0.14627210    -0.66700
Ni449      Ni  0.60726104  0.50715563  0.17818316     1.34900
C450        C  0.52821114  0.38972679  0.15005824     0.84400
O451        O  0.52579403  0.48446264  0.18431999    -0.79700
O452        O  0.57699520  0.49965263  0.19415421    -0.89900
C453        C  0.46165057  0.44624107  0.15634324     0.84000
O454        O  0.60358439  0.54531482  0.17199773    -0.68100
O455        O  0.52493609  0.42446027  0.12119234    -0.87400
C456        C  0.58221349  0.54854201  0.16432444     0.84800
C457        C  0.54595608  0.49290467  0.19513252     1.06400
H458        H  0.53945171  0.48369143  0.13891992     0.38200
O459        O  0.53481099  0.46432791  0.14491883    -1.10100
O460        O  0.55747431  0.41689465  0.15114519    -0.66700
Ni461      Ni  0.57703359  0.46499092  0.14750291     1.26300
O462        O  0.55390830  0.52320558  0.15986744    -0.67000
O463        O  0.58089997  0.45544046  0.12751711    -0.79200
C464        C  0.64572822  0.49561617  0.15654138     0.84200
O465        O  0.62059871  0.46875572  0.15105409    -0.66400
Ni466      Ni  0.49666164  0.42477854  0.13655446     1.27400
Ni467      Ni  0.52986764  0.47456925  0.16448154     1.26100
H468        H  0.56328486  0.45120352  0.17250214     0.38700
O469        O  0.20974449  0.49601705  0.49581842    -0.81200
O470        O  0.26522318  0.39374425  0.49402918    -0.65900
O471        O  0.25629733  0.47261322  0.50030407    -1.12500
C472        C  0.29364123  0.49678890  0.45157086     1.05700
O473        O  0.31680807  0.42775673  0.48494533    -0.79100
O474        O  0.34279613  0.49509661  0.47801395    -0.66700
Ni475      Ni  0.21774898  0.46967974  0.51004349     1.34900
C476        C  0.34085961  0.52011599  0.48321824     0.84400
O477        O  0.24945089  0.41759350  0.51731101    -0.79700
O478        O  0.22168051  0.44349487  0.52550464    -0.89900
C479        C  0.29476918  0.39912591  0.49054698     0.84000
O480        O  0.18368765  0.42878473  0.50100036    -0.68100
O481        O  0.30521584  0.47654724  0.45357592    -0.87400
C482        C  0.18375768  0.40376095  0.49482931     0.84800
C483        C  0.23371994  0.42356482  0.52726329     1.06400
H484        H  0.24979732  0.43186995  0.47207715     0.38200
O485        O  0.26876870  0.44769252  0.47809858    -1.10100
O486        O  0.31245187  0.51883829  0.48528293    -0.66700
Ni487      Ni  0.26516846  0.48763770  0.48062991     1.26300
O488        O  0.21076682  0.40204409  0.49270737    -0.67000
O489        O  0.27600064  0.50226369  0.46085100    -0.79200
C490        C  0.23087747  0.52249943  0.48869545     0.84200
O491        O  0.25873088  0.52576126  0.48391602    -0.66400
Ni492      Ni  0.30926435  0.45215625  0.46964734     1.27400
Ni493      Ni  0.25897219  0.43204244  0.49757156     1.26100
H494        H  0.27606268  0.48821786  0.50600850     0.38700
O495        O  0.09007391  0.24650675  0.65940322    -0.81200
O496        O  0.24469297  0.35738020  0.66075708    -0.65900
O497        O  0.16000193  0.27327727  0.65443656    -1.12500
C498        C  0.17422103  0.25034772  0.70303783     1.05700
O499        O  0.26641354  0.32814053  0.67071167    -0.79100
O500        O  0.22880320  0.25955370  0.67637258    -0.66700
Ni501      Ni  0.12264402  0.27152307  0.64436454     1.34900
C502        C  0.20259650  0.23287994  0.67139373     0.84400
O503        O  0.20538961  0.32973983  0.63725534    -0.79700
O504        O  0.15211378  0.29579953  0.62834903    -0.89900
C505        C  0.27041073  0.35566889  0.66515863     0.84000
O506        O  0.12695289  0.31264896  0.65198755    -0.68100
O507        O  0.20582752  0.27265291  0.70097877    -0.87400
C508        C  0.15005691  0.33831605  0.65887334     0.84800
C509        C  0.18378668  0.31878468  0.62688040     1.06400
H510        H  0.19128412  0.31534030  0.68272697     0.38200
O511        O  0.19615634  0.30076743  0.67675973    -1.10100
O512        O  0.17375952  0.23074729  0.66955334    -0.66700
Ni513      Ni  0.15390918  0.25822194  0.67407534     1.26300
O514        O  0.17946950  0.34238755  0.66181854    -0.67000
O515        O  0.15039132  0.24346806  0.69387943    -0.79200
C516        C  0.08533631  0.21884423  0.66507287     0.84200
O517        O  0.11054153  0.21746785  0.67031730    -0.66400
Ni518      Ni  0.23408840  0.30014718  0.68538500     1.27400
Ni519      Ni  0.20147762  0.31618058  0.65716427     1.26100
H520        H  0.16613894  0.25910403  0.64885455     0.38700
O521        O  0.31219571  0.85632647  0.49390733    -0.81200
O522        O  0.15960032  0.81211823  0.49354483    -0.65900
O523        O  0.24313900  0.81222008  0.49956564    -1.12500
C524        C  0.22673148  0.77442492  0.45098372     1.05700
O525        O  0.13684812  0.75966172  0.48447812    -0.79100
O526        O  0.17318304  0.72769476  0.47791759    -0.66700
Ni527      Ni  0.28099548  0.84861903  0.50936708     1.34900
C528        C  0.19969715  0.72772915  0.48254975     0.84400
O529        O  0.19957717  0.82520444  0.51687030    -0.79700
O530        O  0.25250742  0.84354218  0.52558292    -0.89900
C531        C  0.13350398  0.78416984  0.48940020     0.84000
O532        O  0.27703781  0.88556805  0.50197089    -0.68100
O533        O  0.19509775  0.76421304  0.45330764    -0.87400
C534        C  0.25502329  0.88791668  0.49439239     0.84800
C535        C  0.22123465  0.83544916  0.52723311     1.06400
H536        H  0.21108781  0.82174067  0.47135766     0.38200
O537        O  0.20634954  0.80255312  0.47748951    -1.10100
O538        O  0.22857233  0.75507860  0.48424203    -0.66700
Ni539      Ni  0.24845515  0.80288474  0.47985324     1.26300
O540        O  0.22533292  0.86229778  0.49155927    -0.67000
O541        O  0.25097266  0.79166160  0.46000213    -0.79200
C542        C  0.31722859  0.83349526  0.48846112     0.84200
O543        O  0.29207555  0.80630813  0.48321690    -0.66400
Ni544      Ni  0.16774469  0.76327462  0.46928882     1.27400
Ni545      Ni  0.20229492  0.81403024  0.49700205     1.26100
H546        H  0.23678638  0.79180729  0.50515896     0.38700
O547        O  0.19005570  0.99068432  0.65805730    -0.81200
O548        O  0.14506456  0.83663060  0.65831114    -0.65900
O549        O  0.14642952  0.92078337  0.65222769    -1.12500
C550        C  0.10247227  0.90205834  0.69983751     1.05700
O551        O  0.09185105  0.81364024  0.66640771    -0.79100
O552        O  0.05992065  0.85015918  0.67174762    -0.66700
Ni553      Ni  0.18370567  0.95890565  0.64283038     1.34900
C554        C  0.06070158  0.87717509  0.66733147     0.84400
O555        O  0.15960153  0.87706977  0.63527785    -0.79700
O556        O  0.18017502  0.93043850  0.62668250    -0.89900
C557        C  0.11670623  0.81043380  0.66192221     0.84000
O558        O  0.21997818  0.95454893  0.65084222    -0.68100
O559        O  0.09221773  0.87051329  0.69727400    -0.87400
C560        C  0.22141996  0.93126402  0.65784963     0.84800
C561        C  0.17140045  0.89891643  0.62503027     1.06400
H562        H  0.15291941  0.88701878  0.68064846     0.38200
O563        O  0.13437648  0.88282895  0.67418179    -1.10100
O564        O  0.08815946  0.90615565  0.66637455    -0.66700
Ni565      Ni  0.13526808  0.92517861  0.67175207     1.26300
O566        O  0.19525945  0.90194217  0.66066200    -0.67000
O567        O  0.12183099  0.92686171  0.69137904    -0.79200
C568        C  0.16681630  0.99455830  0.66396285     0.84200
O569        O  0.13922407  0.96874413  0.66845235    -0.66400
Ni570      Ni  0.09374712  0.84397512  0.68148089     1.27400
Ni571      Ni  0.14737622  0.87950628  0.65488048     1.26100
H572        H  0.12660508  0.91478719  0.64630916     0.38700
O573        O  0.57755225  0.76462640  0.49410751    -0.81200
O574        O  0.68359983  0.91792026  0.49691022    -0.65900
O575        O  0.60004811  0.83221387  0.50098098    -1.12500
C576        C  0.58014307  0.85335583  0.45306120     1.05700
O577        O  0.65395197  0.94067563  0.48830675    -0.79100
O578        O  0.58539362  0.90253829  0.48227968    -0.66700
Ni579      Ni  0.59855233  0.79425045  0.51037170     1.34900
C580        C  0.55841378  0.87468391  0.48580701     0.84400
O581        O  0.65497671  0.87504353  0.51909613    -0.79700
O582        O  0.61959212  0.82149828  0.52728340    -0.89900
C583        C  0.68161103  0.94403268  0.49344226     0.84000
O584        O  0.64155386  0.80096775  0.50402109    -0.68100
O585        O  0.59994232  0.88488094  0.45647001    -0.87400
C586        C  0.66665878  0.82432246  0.49701063     0.84800
C587        C  0.64300498  0.85285367  0.52921335     1.06400
H588        H  0.64390923  0.86921567  0.47349603     0.38200
O589        O  0.62840942  0.87209261  0.47973795    -1.10100
O590        O  0.55695158  0.84584019  0.48598426    -0.66700
Ni591      Ni  0.58671057  0.82862121  0.48113763     1.26300
O592        O  0.66939136  0.85309210  0.49378900    -0.67000
O593        O  0.57412884  0.82801592  0.46120603    -0.79200
C594        C  0.54956168  0.75871128  0.48843349     0.84200
O595        O  0.54693471  0.78355721  0.48351484    -0.66400
Ni596      Ni  0.62659439  0.91078517  0.47277861     1.27400
Ni597      Ni  0.64262524  0.87414875  0.49930800     1.26100
H598        H  0.58518567  0.83734919  0.50660263     0.38700
O599        O  0.82834333  0.88662587  0.65817410    -0.81200
O600        O  0.72153388  0.93263471  0.65915580    -0.65900
O601        O  0.80535203  0.93286669  0.65372858    -1.12500
C602        C  0.82556642  0.96581549  0.70227662     1.05700
O603        O  0.74886037  0.98297589  0.67045106    -0.79100
O604        O  0.81832156  0.01360889  0.67396219    -0.66700
Ni605      Ni  0.80717561  0.89805610  0.64290136     1.34900
C606        C  0.84564678  0.01360369  0.67068416     0.84400
O607        O  0.75039500  0.92223453  0.63609126    -0.79700
O608        O  0.78632503  0.90658042  0.62675493    -0.89900
C609        C  0.72247239  0.95948369  0.66394287     0.84000
O610        O  0.76379784  0.86026267  0.64843085    -0.68100
O611        O  0.80805489  0.98004929  0.69942225    -0.87400
C612        C  0.73868928  0.85722803  0.65575076     0.84800
C613        C  0.76220773  0.91324478  0.62551915     1.06400
H614        H  0.76018971  0.92046591  0.68156710     0.38200
O615        O  0.77610001  0.93997926  0.67581341    -1.10100
O616        O  0.84775566  0.98664344  0.67065441    -0.66700
Ni617      Ni  0.81737164  0.93838542  0.67367115     1.26300
O618        O  0.73632684  0.88261465  0.66023578    -0.67000
O619        O  0.82850648  0.94528982  0.69374560    -0.79200
C620        C  0.85520855  0.90800551  0.66497600     0.84200
O621        O  0.85721892  0.93457456  0.67061926    -0.66400
Ni622      Ni  0.77889190  0.97976277  0.68434226     1.27400
Ni623      Ni  0.76271655  0.93127295  0.65604281     1.26100
H624        H  0.82057568  0.95415998  0.64881292     0.38700
O625        O  0.74845465  0.57035512  0.98946885    -0.81200
O626        O  0.90447414  0.68008989  0.99358604    -0.65900
O627        O  0.81974840  0.59665371  0.98629834    -1.12500
C628        C  0.82878829  0.57019106  0.03440531     1.05700
O629        O  0.92645755  0.65247836  0.00486288    -0.79100
O630        O  0.88674806  0.58305581  0.00621280    -0.66700
Ni631      Ni  0.78381598  0.59635044  0.97542481     1.34900
C632        C  0.85966650  0.55564708  0.00241987     0.84400
O633        O  0.86766370  0.65350785  0.96979324    -0.79700
O634        O  0.81521279  0.62173804  0.96009410    -0.89900
C635        C  0.93017583  0.67895310  0.99837039     0.84000
O636        O  0.78781996  0.63698830  0.98341147    -0.68100
O637        O  0.86093630  0.58843092  0.03193362    -0.87400
C638        C  0.81053399  0.66187116  0.99076391     0.84800
C639        C  0.84719476  0.64390589  0.95908365     1.06400
H640        H  0.85069548  0.63865171  0.01506758     0.38200
O641        O  0.85479670  0.62356209  0.00908319    -1.10100
O642        O  0.83014120  0.55268680  0.00235967    -0.66700
Ni643      Ni  0.81166148  0.58203340  0.00598862     1.26300
O644        O  0.83964884  0.66553039  0.99393520    -0.67000
O645        O  0.80572584  0.56807847  0.02584432    -0.79200
C646        C  0.74294421  0.54421439  0.99671659     0.84200
O647        O  0.76770346  0.54225160  0.00210272    -0.66400
Ni648      Ni  0.89131213  0.62020397  0.01773690     1.27400
Ni649      Ni  0.86158118  0.63919411  0.98956062     1.26100
H650        H  0.82586383  0.58205517  0.98103076     0.38700
O651        O  0.88110779  0.82021462  0.82832697    -0.81200
O652        O  0.93136208  0.71664517  0.82805213    -0.65900
O653        O  0.92734421  0.79830877  0.83330140    -1.12500
C654        C  0.96093236  0.81752999  0.78416424     1.05700
O655        O  0.98275307  0.74869115  0.81825652    -0.79100
O656        O  0.01100691  0.81613882  0.81136727    -0.66700
Ni657      Ni  0.89136946  0.79865931  0.84374975     1.34900
C658        C  0.01005442  0.84242861  0.81556646     0.84400
O659        O  0.91920516  0.74449734  0.85121608    -0.79700
O660        O  0.89943095  0.77759213  0.85998883    -0.89900
C661        C  0.95983128  0.72044821  0.82376884     0.84000
O662        O  0.85454737  0.75530163  0.83758026    -0.68100
O663        O  0.97338355  0.79829635  0.78681712    -0.87400
C664        C  0.85244769  0.73001614  0.83070544     0.84800
C665        C  0.90919960  0.75581643  0.86164603     1.06400
H666        H  0.91708051  0.75429985  0.80554871     0.38200
O667        O  0.93644710  0.77035901  0.81133619    -1.10100
O668        O  0.98209778  0.84234726  0.81704063    -0.66700
Ni669      Ni  0.93428365  0.81126219  0.81335526     1.26300
O670        O  0.87858230  0.72807896  0.82687118    -0.67000
O671        O  0.94315212  0.82351421  0.79321551    -0.79200
C672        C  0.90343878  0.84835721  0.82262493     0.84200
O673        O  0.92963732  0.85050884  0.81653771    -0.66400
Ni674      Ni  0.97649406  0.77363725  0.80294501     1.27400
Ni675      Ni  0.92748320  0.75651739  0.83112089     1.26100
H676        H  0.94811701  0.81384577  0.83847620     0.38700
O677        O  0.85095751  0.31526840  0.98793487    -0.81200
O678        O  0.80716977  0.16168741  0.99093300    -0.65900
O679        O  0.80668405  0.24473983  0.98414638    -1.12500
C680        C  0.77279539  0.23220978  0.03306748     1.05700
O681        O  0.75520157  0.14046035  0.00014446    -0.79100
O682        O  0.72421101  0.17730028  0.00691074    -0.66700
Ni683      Ni  0.84127259  0.28154767  0.97318747     1.34900
C684        C  0.72414621  0.20390440  0.00249116     0.84400
O685        O  0.81776568  0.19939300  0.96719620    -0.79700
O686        O  0.83440256  0.25101880  0.95744018    -0.89900
C687        C  0.77900780  0.13606829  0.99518925     0.84000
O688        O  0.87932787  0.27851399  0.97984399    -0.68100
O689        O  0.76210250  0.20032881  0.03105971    -0.87400
C690        C  0.88312785  0.25688044  0.98708015     0.84800
C691        C  0.82696176  0.21977068  0.95644101     1.06400
H692        H  0.81895189  0.21468712  0.01249448     0.38200
O693        O  0.79934210  0.20983219  0.00661993    -1.10100
O694        O  0.75156830  0.23248105  0.00044761    -0.66700
Ni695      Ni  0.79973456  0.25177663  0.00395924     1.26300
O696        O  0.85795721  0.22787419  0.99113249    -0.67000
O697        O  0.79061504  0.25590209  0.02391865    -0.79200
C698        C  0.82903532  0.31999015  0.99453215     0.84200
O699        O  0.80298350  0.29492353  0.00039121    -0.66400
Ni700      Ni  0.76012760  0.17201072  0.01525098     1.27400
Ni701      Ni  0.80883592  0.20414506  0.98704232     1.26100
H702        H  0.78550357  0.23766255  0.97901939     0.38700
O703        O  0.99066055  0.19167371  0.82882079    -0.81200
O704        O  0.83405323  0.13686962  0.82777410    -0.65900
O705        O  0.92070654  0.14360107  0.83395397    -1.12500
C706        C  0.90616594  0.10337461  0.78621430     1.05700
O707        O  0.81382666  0.08430112  0.81932873    -0.79100
O708        O  0.85453753  0.05730597  0.81536604    -0.66700
Ni709      Ni  0.95713919  0.18168519  0.84386913     1.34900
C710        C  0.88276467  0.05978387  0.81902903     0.84400
O711        O  0.87414456  0.15243112  0.85089351    -0.79700
O712        O  0.92729864  0.17483467  0.85995599    -0.89900
C713        C  0.80894198  0.10809456  0.82380588     0.84000
O714        O  0.94983867  0.21674181  0.83643491    -0.68100
O715        O  0.87418820  0.08837052  0.78924925    -0.87400
C716        C  0.92597370  0.21673204  0.82925060     0.84800
C717        C  0.89536676  0.16458621  0.86132887     1.06400
H718        H  0.88496574  0.14846993  0.80557638     0.38200
O719        O  0.88251406  0.13042979  0.81193277    -1.10100
O720        O  0.91118624  0.08802069  0.81876831    -0.66700
Ni721      Ni  0.92658226  0.13513654  0.81424586     1.26300
O722        O  0.89799370  0.18952949  0.82588451    -0.67000
O723        O  0.93007076  0.12506214  0.79442569    -0.79200
C724        C  0.99612867  0.17040606  0.82199636     0.84200
O725        O  0.97134979  0.14237494  0.81730326    -0.66400
Ni726      Ni  0.84580015  0.08812552  0.80468102     1.27400
Ni727      Ni  0.87795780  0.14168885  0.83129274     1.26100
H728        H  0.91582359  0.12358486  0.83953609     0.38700
O729        O  0.48915769  0.20902386  0.99214232    -0.81200
O730        O  0.38051615  0.25277864  0.99187421    -0.65900
O731        O  0.46532236  0.25449764  0.98721882    -1.12500
C732        C  0.48330710  0.28920042  0.03591540     1.05700
O733        O  0.40748035  0.30380604  0.00255861    -0.79100
O734        O  0.47695448  0.33590135  0.00754156    -0.66700
Ni735      Ni  0.46817237  0.22009840  0.97654931     1.34900
C736        C  0.50449099  0.33634055  0.00416523     0.84400
O737        O  0.41051210  0.24274174  0.96897681    -0.79700
O738        O  0.44775424  0.22841233  0.96001831    -0.89900
C739        C  0.38096854  0.27960259  0.99637385     0.84000
O740        O  0.42459333  0.18184596  0.98169550    -0.68100
O741        O  0.46438087  0.30170963  0.03281222    -0.87400
C742        C  0.39878359  0.17822382  0.98868427     0.84800
C743        C  0.42333355  0.23461895  0.95846432     1.06400
H744        H  0.41946261  0.24219803  0.01467672     0.38200
O745        O  0.43524726  0.26176012  0.00891939    -1.10100
O746        O  0.50689888  0.30949040  0.00391405    -0.66700
Ni747      Ni  0.47711434  0.26110825  0.00727609     1.26300
O748        O  0.39621256  0.20340149  0.99334155    -0.67000
O749        O  0.48826969  0.26973203  0.02746461    -0.79200
C750        C  0.51516167  0.23000779  0.99957221     0.84200
O751        O  0.51709248  0.25706566  0.00473261    -0.66400
Ni752      Ni  0.43649743  0.30110100  0.01714836     1.27400
Ni753      Ni  0.42222813  0.25216253  0.98908310     1.26100
H754        H  0.48035179  0.27576558  0.98224588     0.38700
O755        O  0.24535047  0.08789244  0.82595210    -0.81200
O756        O  0.35602768  0.24172648  0.82641392    -0.65900
O757        O  0.27099842  0.15762216  0.83136808    -1.12500
C758        C  0.24912024  0.17339859  0.78336255     1.05700
O759        O  0.33057364  0.26623911  0.81523877    -0.79100
O760        O  0.26053853  0.22831054  0.81230695    -0.66700
Ni761      Ni  0.26862088  0.11983011  0.84144113     1.34900
C762        C  0.23249685  0.20094911  0.81532852     0.84400
O763        O  0.32606519  0.20186608  0.84942144    -0.79700
O764        O  0.29105977  0.14855870  0.85781670    -0.89900
C765        C  0.35647668  0.26824058  0.82160646     0.84000
O766        O  0.31106080  0.12484199  0.83508006    -0.68100
O767        O  0.26828849  0.20518494  0.78641392    -0.87400
C768        C  0.33693658  0.14811590  0.82836935     0.84800
C769        C  0.31403821  0.18005360  0.85971882     1.06400
H770        H  0.31581814  0.19119552  0.80354514     0.38200
O771        O  0.30048282  0.19508028  0.80947763    -1.10100
O772        O  0.22958466  0.17144876  0.81514873    -0.66700
Ni773      Ni  0.25809570  0.15221633  0.81147343     1.26300
O774        O  0.34013207  0.17680139  0.82476069    -0.67000
O775        O  0.24569398  0.14904083  0.79147393    -0.79200
C776        C  0.21798542  0.08315379  0.81996127     0.84200
O777        O  0.21718610  0.10848613  0.81450597    -0.66400
Ni778      Ni  0.29894375  0.23324957  0.80144706     1.27400
Ni779      Ni  0.31414091  0.19900508  0.82929317     1.26100
H780        H  0.25626320  0.16353790  0.83664695     0.38700
O781        O  0.65361744  0.60071871  0.65641425    -0.81200
O782        O  0.60697228  0.44986535  0.65418772    -0.65900
O783        O  0.60669040  0.53302836  0.64825001    -1.12500
C784        C  0.56699596  0.51570490  0.69616243     1.05700
O785        O  0.55445386  0.42489560  0.66337338    -0.79100
O786        O  0.52249853  0.46087649  0.66643538    -0.66700
Ni787      Ni  0.64522887  0.57170407  0.63985186     1.34900
C788        C  0.52143358  0.48713383  0.66242169     0.84400
O789        O  0.62452683  0.49250601  0.63144142    -0.79700
O790        O  0.63921634  0.54505753  0.62291491    -0.89900
C791        C  0.57984269  0.42313604  0.65847836     0.84000
O792        O  0.68146455  0.56397619  0.64564712    -0.68100
O793        O  0.55259578  0.48372369  0.69304189    -0.87400
C794        C  0.68192302  0.54037314  0.65286744     0.84800
C795        C  0.63598793  0.51539141  0.62152456     1.06400
H796        H  0.61301401  0.49888160  0.67650086     0.38200
O797        O  0.59459669  0.49462565  0.66998550    -1.10100
O798        O  0.54743999  0.51764930  0.66288888    -0.66700
Ni799      Ni  0.59586941  0.53712733  0.66770015     1.26300
O800        O  0.65484178  0.51422982  0.65748581    -0.67000
O801        O  0.58586640  0.53963499  0.68739462    -0.79200
C802        C  0.63122159  0.60652082  0.66187759     0.84200
O803        O  0.60132802  0.58165419  0.66478379    -0.66400
Ni804      Ni  0.55490059  0.45612418  0.67766361     1.27400
Ni805      Ni  0.60835689  0.49219616  0.65077588     1.26100
H806        H  0.58704270  0.52744583  0.64226339     0.38700
O807        O  0.59771502  0.64921311  0.83395942    -0.81200
O808        O  0.43881099  0.58936365  0.83968193    -0.65900
O809        O  0.52956632  0.60385962  0.84316303    -1.12500
C810        C  0.50976709  0.56641419  0.79421135     1.05700
O811        O  0.42129899  0.53934254  0.82942816    -0.79100
O812        O  0.46013399  0.51500422  0.81973341    -0.66700
Ni813      Ni  0.56651664  0.64814395  0.84854461     1.34900
C814        C  0.48399458  0.51534692  0.82702914     0.84400
O815        O  0.48380277  0.60945512  0.86166794    -0.79700
O816        O  0.53946309  0.65110345  0.86396810    -0.89900
C817        C  0.41460396  0.56109108  0.83480816     0.84000
O818        O  0.55554807  0.67533945  0.83632314    -0.68100
O819        O  0.47822215  0.55706586  0.79621343    -0.87400
C820        C  0.52633816  0.67253003  0.83478937     0.84800
C821        C  0.50837551  0.63456564  0.86843054     1.06400
H822        H  0.49244785  0.60769850  0.81641945     0.38200
O823        O  0.48830412  0.58809089  0.82213784    -1.10100
O824        O  0.51199898  0.54283581  0.83015513    -0.66700
Ni825      Ni  0.53123023  0.59014177  0.82389844     1.26300
O826        O  0.49841384  0.64451364  0.83705617    -0.67000
O827        O  0.53195442  0.57714601  0.80431264    -0.79200
C828        C  0.60152212  0.62500824  0.82900138     0.84200
O829        O  0.57567715  0.59547572  0.82644128    -0.66400
Ni830      Ni  0.45094953  0.54934821  0.81313406     1.27400
Ni831      Ni  0.48462665  0.59787795  0.84187524     1.26100
H832        H  0.52891898  0.58715510  0.84985735     0.38700
O833        O  0.42749635  0.98314342  0.82991482    -0.81200
O834        O  0.48019201  0.88292383  0.83665449    -0.65900
O835        O  0.47299470  0.96320892  0.84005862    -1.12500
C836        C  0.51205066  0.98036164  0.79117198     1.05700
O837        O  0.53133405  0.91320150  0.82667400    -0.79100
O838        O  0.55988137  0.97851477  0.81836742    -0.66700
Ni839      Ni  0.43151543  0.96004471  0.84660412     1.34900
C840        C  0.56023917  0.00392088  0.82435675     0.84400
O841        O  0.46109551  0.90914563  0.85872472    -0.79700
O842        O  0.43242523  0.93693988  0.86376718    -0.89900
C843        C  0.50726592  0.88495646  0.83157825     0.84000
O844        O  0.39828655  0.91647675  0.83853439    -0.68100
O845        O  0.52203139  0.95901174  0.79368986    -0.87400
C846        C  0.40065907  0.89106209  0.83423593     0.84800
C847        C  0.44263735  0.91610006  0.86700943     1.06400
H848        H  0.46765389  0.92061807  0.81323904     0.38200
O849        O  0.48703698  0.93604212  0.81916303    -1.10100
O850        O  0.53356139  0.00632449  0.82625464    -0.66700
Ni851      Ni  0.48586861  0.97746820  0.82052120     1.26300
O852        O  0.42909019  0.89208361  0.83323593    -0.67000
O853        O  0.49830419  0.98996731  0.80073921    -0.79200
C854        C  0.45098930  0.01208636  0.82512291     0.84200
O855        O  0.48084997  0.01699162  0.82268013    -0.66400
Ni856      Ni  0.52529579  0.93617778  0.81056344     1.27400
Ni857      Ni  0.47538397  0.92237974  0.83892718     1.26100
H858        H  0.49117220  0.97912974  0.84637781     0.38700
O859        O  0.48204139  0.09833009  0.65363097    -0.81200
O860        O  0.63560808  0.19599305  0.64904457    -0.65900
O861        O  0.54779254  0.11478509  0.64512409    -1.12500
C862        C  0.56680920  0.09625931  0.69369949     1.05700
O863        O  0.65600253  0.16505371  0.65832185    -0.79100
O864        O  0.61647831  0.09852967  0.66459734    -0.66700
Ni865      Ni  0.51040746  0.11622993  0.63670188     1.34900
C866        C  0.58912159  0.07214349  0.66033039     0.84400
O867        O  0.59057832  0.17058403  0.62689849    -0.79700
O868        O  0.53638652  0.13403873  0.61934505    -0.89900
C869        C  0.66092919  0.19324299  0.65315712     0.84000
O870        O  0.52209087  0.16214282  0.64179831    -0.68100
O871        O  0.59875158  0.11425186  0.69047911    -0.87400
C872        C  0.54760427  0.18655855  0.64828361     0.84800
C873        C  0.56677801  0.15944401  0.61734996     1.06400
H874        H  0.58602620  0.15784245  0.67231927     0.38200
O875        O  0.58849267  0.14194929  0.66617046    -1.10100
O876        O  0.55979221  0.06985806  0.66021758    -0.66700
Ni877      Ni  0.54421965  0.10168589  0.66491795     1.26300
O878        O  0.57297463  0.18441417  0.65270433    -0.67000
O879        O  0.54277543  0.09041227  0.68487585    -0.79200
C880        C  0.47433802  0.06985482  0.65953222     0.84200
O881        O  0.49802978  0.06381652  0.66291732    -0.66400
Ni882      Ni  0.62581856  0.13961776  0.67400029     1.27400
Ni883      Ni  0.59093485  0.15624324  0.64657132     1.26100
H884        H  0.55129130  0.09895001  0.63938439     0.38700
O885        O  0.09014767  0.47380555  0.82865150    -0.81200
O886        O  0.19826501  0.62518402  0.83002272    -0.65900
O887        O  0.11350100  0.54171373  0.83610376    -1.12500
C888        C  0.09372169  0.55662405  0.78717314     1.05700
O889        O  0.17095541  0.64867030  0.81979107    -0.79100
O890        O  0.10346447  0.61304656  0.81498815    -0.66700
Ni891      Ni  0.11226221  0.50336752  0.84487894     1.34900
C892        C  0.07683955  0.58843745  0.82076004     0.84400
O893        O  0.17179241  0.58387974  0.85316070    -0.79700
O894        O  0.13479959  0.53058901  0.86155323    -0.89900
C895        C  0.19812060  0.65128124  0.82506001     0.84000
O896        O  0.15523994  0.50969381  0.83846508    -0.68100
O897        O  0.11435491  0.58863315  0.78947123    -0.87400
C898        C  0.18064802  0.53352960  0.83174179     0.84800
C899        C  0.16094732  0.56081695  0.86301418     1.06400
H900        H  0.15496686  0.57321963  0.80797469     0.38200
O901        O  0.14099579  0.57864946  0.81406226    -1.10100
O902        O  0.07129290  0.55781703  0.82157678    -0.66700
Ni903      Ni  0.09824046  0.53676680  0.81658980     1.26300
O904        O  0.18186266  0.56098177  0.82778743    -0.67000
O905        O  0.08503212  0.53349342  0.79678365    -0.79200
C906        C  0.06178788  0.46773173  0.82321684     0.84200
O907        O  0.05764841  0.49267282  0.81985876    -0.66400
Ni908      Ni  0.14212424  0.61690881  0.80517288     1.27400
Ni909      Ni  0.15667565  0.58268291  0.83352982     1.26100
H910        H  0.09953051  0.54747218  0.84202605     0.38700
O911        O  0.99059303  0.43281726  0.64375940    -0.81200
O912        O  0.88334475  0.47975439  0.64766316    -0.65900
O913        O  0.96535521  0.47796120  0.63921577    -1.12500
C914        C  0.99097255  0.51089497  0.68824570     1.05700
O915        O  0.91339862  0.53001807  0.65844222    -0.79100
O916        O  0.98098102  0.56010817  0.66235849    -0.66700
Ni917      Ni  0.96343310  0.43967338  0.62957431     1.34900
C918        C  0.00703005  0.56159776  0.65649859     0.84400
O919        O  0.90658354  0.46612078  0.62354824    -0.79700
O920        O  0.93602752  0.44230127  0.61443629    -0.89900
C921        C  0.88526399  0.50641296  0.65318147     0.84000
O922        O  0.92254667  0.40347009  0.63816469    -0.68100
O923        O  0.97106694  0.52304185  0.68688090    -0.87400
C924        C  0.89703154  0.40261027  0.64433073     0.84800
C925        C  0.91253604  0.45000387  0.61372388     1.06400
H926        H  0.92602942  0.46698133  0.66812029     0.38200
O927        O  0.94041435  0.48692704  0.66226909    -1.10100
O928        O  0.01046277  0.53551294  0.65462583    -0.66700
Ni929      Ni  0.98182265  0.48664509  0.65864109     1.26300
O930        O  0.89614233  0.42952029  0.64754182    -0.67000
O931        O  0.99632485  0.49467454  0.67831200    -0.79200
C932        C  0.01784643  0.45477975  0.65026032     0.84200
O933        O  0.02145732  0.48321961  0.65439416    -0.66400
Ni934      Ni  0.94224559  0.52478404  0.67212075     1.27400
Ni935      Ni  0.92345143  0.47750547  0.64295636     1.26100
H936        H  0.97980151  0.49804692  0.63344392     0.38700
C937        C  0.08008732  0.54631743  0.77237367    -0.20200
C938        C  0.04671959  0.51845312  0.76960015     0.36000
C939        C  0.03460894  0.51093559  0.75536655    -0.26200
C940        C  0.05527842  0.53083837  0.74385680     0.02500
C941        C  0.08904704  0.55789976  0.74652689     0.27300
C942        C  0.10102746  0.56549910  0.76075135    -0.25300
N943        N  0.02453925  0.49872924  0.78120946    -0.82700
H944        H  0.00850961  0.49030707  0.75333963     0.13100
C945        C  0.04023963  0.52547415  0.72926979     0.02400
N946        N  0.11080938  0.57778008  0.73476275    -0.81200
H947        H  0.12689948  0.58657828  0.76277589     0.17900
C948        C  0.03693270  0.55196597  0.72314282    -0.26100
C949        C  0.02172143  0.54798859  0.70960296     0.35900
C950        C  0.00904435  0.51654872  0.70211427    -0.20100
C951        C  0.01331820  0.49035763  0.70804314    -0.25400
C952        C  0.02878685  0.49451915  0.72161807     0.27300
H953        H  0.04606923  0.57580641  0.72904343     0.13100
N954        N  0.01937784  0.57587235  0.70337233    -0.82600
H955        H  0.00395175  0.46640264  0.70221040     0.17900
N956        N  0.03284234  0.46754459  0.72768996    -0.81200
H957        H  0.03461726  0.58375415  0.69409225     0.33600
H958        H  0.02976098  0.59708794  0.71030907     0.38100
H959        H  0.02296453  0.44641602  0.72071610     0.33500
H960        H  0.05921958  0.47685476  0.72858018     0.30200
H961        H  0.13485039  0.59689507  0.73854711     0.33500
H962        H  0.11513279  0.56125481  0.72836748     0.30200
H963        H  0.00240900  0.50058410  0.78074479     0.38100
H964        H  0.01721618  0.47295471  0.77960520     0.33600
C965        C  0.86548911  0.36884654  0.64694831    -0.20200
C966        C  0.85514848  0.34092591  0.63726378     0.36000
C967        C  0.82186676  0.31207134  0.63834520    -0.26200
C968        C  0.79895313  0.31040080  0.64889132     0.02500
C969        C  0.80950475  0.33729423  0.65893727     0.27300
C970        C  0.84264283  0.36633827  0.65783736    -0.25300
N971        N  0.87752654  0.34270846  0.62583664    -0.82700
H972        H  0.81346825  0.29097948  0.63077687     0.13100
C973        C  0.76386105  0.28018259  0.64932908     0.02400
N974        N  0.78643584  0.33501382  0.67014936    -0.81200
H975        H  0.85032435  0.38757633  0.66526189     0.17900
C976        C  0.75777631  0.25178688  0.65755553    -0.26100
C977        C  0.72465855  0.22299213  0.65869874     0.35900
C978        C  0.69674963  0.22256171  0.65153083    -0.20100
C979        C  0.70324007  0.25099386  0.64301001    -0.25400
C980        C  0.73664111  0.27973857  0.64176063     0.27300
H981        H  0.77887404  0.25211958  0.66325224     0.13100
N982        N  0.71959877  0.19460048  0.66739430    -0.82600
H983        H  0.68225990  0.25085475  0.63731368     0.17900
N984        N  0.74316345  0.30826696  0.63272337    -0.81200
H985        H  0.72787641  0.20362574  0.67785023     0.33600
H986        H  0.73511130  0.18553366  0.66329775     0.38100
H987        H  0.72050049  0.30366712  0.62770313     0.33500
H988        H  0.75114433  0.32981430  0.63931446     0.30200
H989        H  0.79831982  0.35676888  0.67677597     0.33500
H990        H  0.76560858  0.33507439  0.66529742     0.30200
H991        H  0.89772595  0.34121060  0.63054712     0.38100
H992        H  0.86488829  0.32133215  0.61903793     0.33600
C993        C  0.55761836  0.08060230  0.70834595    -0.20200
C994        C  0.52419506  0.06686683  0.71426063     0.36000
C995        C  0.51659242  0.05021475  0.72769909    -0.26200
C996        C  0.54167224  0.04752339  0.73547782     0.02500
C997        C  0.57521267  0.06214179  0.72990430     0.27300
C998        C  0.58279275  0.07831569  0.71640038    -0.25300
N999        N  0.49812751  0.06996797  0.70672253    -0.82700
H1000       H  0.49094769  0.03923990  0.73216896     0.13100
C1001       C  0.53264208  0.02964883  0.74956557     0.02400
N1002       N  0.60143024  0.06049780  0.73801554    -0.81200
H1003       H  0.60851432  0.08880436  0.71209288     0.17900
C1004       C  0.53334097  0.99915289  0.75113175    -0.26100
C1005       C  0.52565974  0.98181684  0.76440747     0.35900
C1006       C  0.51764053  0.99574265  0.77650141    -0.20100
C1007       C  0.51638501  0.02605531  0.77471642    -0.25400
C1008       C  0.52390720  0.04315182  0.76141703     0.27300
H1009       H  0.53977752  0.98878607  0.74189748     0.13100
N1010       N  0.52586987  0.95016132  0.76554973    -0.82600
H1011       H  0.51039964  0.03710058  0.78383424     0.17900
N1012       N  0.52338961  0.07458081  0.75994959    -0.81200
H1013       H  0.53300178  0.94404428  0.75576881     0.33600
H1014       H  0.50061571  0.93052576  0.76758894     0.38100
H1015       H  0.51633355  0.08104942  0.76966270     0.33500
H1016       H  0.54850720  0.09427393  0.75772365     0.30200
H1017       H  0.62474526  0.07237086  0.73239695     0.33500
H1018       H  0.60554805  0.07472510  0.74746360     0.30200
H1019       H  0.50606443  0.09612679  0.70635568     0.38100
H1020       H  0.47493289  0.05788605  0.71242748     0.33600
C1021       C  0.36931560  0.85743036  0.83116583    -0.20200
C1022       C  0.33768249  0.84691998  0.83823911     0.36000
C1023       C  0.31117528  0.81231008  0.83737560    -0.26200
C1024       C  0.31555739  0.78826163  0.82956389     0.02500
C1025       C  0.34645252  0.79869089  0.82215739     0.27300
C1026       C  0.37293279  0.83317236  0.82295113    -0.25300
N1027       N  0.33296580  0.87084876  0.84674593    -0.82700
H1028       H  0.28695638  0.80393964  0.84283621     0.13100
C1029       C  0.28665764  0.75259297  0.82844891     0.02400
N1030       N  0.35082642  0.77411228  0.81396560    -0.81200
H1031       H  0.39700854  0.84088075  0.81749232     0.17900
C1032       C  0.26515541  0.74354003  0.81644939    -0.26100
C1033       C  0.23660505  0.71040530  0.81508225     0.35900
C1034       C  0.22930447  0.68574289  0.82593053    -0.20100
C1035       C  0.25158917  0.69453259  0.83776357    -0.25400
C1036       C  0.28027463  0.72795873  0.83915678     0.27300
H1037       H  0.27045612  0.76243680  0.80813713     0.13100
N1038       N  0.21539195  0.70174332  0.80251768    -0.82600
H1039       H  0.24615714  0.67560067  0.84606794     0.17900
N1040       N  0.30259055  0.73718515  0.85144297    -0.81200
H1041       H  0.23085364  0.70583660  0.79348098     0.33600
H1042       H  0.20594442  0.71857752  0.80190579     0.38100
H1043       H  0.29410847  0.71618930  0.85838791     0.33500
H1044       H  0.32685834  0.74305618  0.84774566     0.30200
H1045       H  0.37497046  0.78603828  0.80900269     0.33500
H1046       H  0.35040415  0.75616860  0.82118710     0.30200
H1047       H  0.33248165  0.88856443  0.83966415     0.38100
H1048       H  0.30900541  0.85838572  0.85186658     0.33600
C1049       C  0.37845103  0.55328392  0.83486065    -0.20200
C1050       C  0.36796639  0.57342554  0.84260942     0.36000
C1051       C  0.33414325  0.56664167  0.84104087    -0.26200
C1052       C  0.31068052  0.54012971  0.83205041     0.02500
C1053       C  0.32053237  0.51936480  0.82465142     0.27300
C1054       C  0.35431581  0.52612421  0.82612066    -0.25300
N1055       N  0.39152176  0.60068385  0.85196782    -0.82700
H1056       H  0.32595105  0.58212899  0.84682236     0.13100
C1057       C  0.27567027  0.53436714  0.83068346     0.02400
N1058       N  0.29638796  0.49199672  0.81547973    -0.81200
H1059       H  0.36196784  0.51050598  0.82011417     0.17900
C1060       C  0.26844938  0.55087847  0.81965980    -0.26100
C1061       C  0.23661214  0.54939457  0.81912991     0.35900
C1062       C  0.21159400  0.53063087  0.82979545    -0.20100
C1063       C  0.21849306  0.51261862  0.84033076    -0.25400
C1064       C  0.25044401  0.51465292  0.84097586     0.27300
H1065       H  0.28817428  0.56593514  0.81178060     0.13100
N1066       N  0.23000235  0.56754506  0.80808381    -0.82600
H1067       H  0.19971041  0.49863448  0.84867844     0.17900
N1068       N  0.25805373  0.49820965  0.85244043    -0.81200
H1069       H  0.25122166  0.58035169  0.80122874     0.33600
H1070       H  0.20967544  0.54923440  0.80180848     0.38100
H1071       H  0.23703168  0.48551771  0.85940124     0.33500
H1072       H  0.26191143  0.47928101  0.84784704     0.30200
H1073       H  0.30789048  0.47942865  0.81062385     0.33500
H1074       H  0.27658490  0.47378273  0.82198321     0.30200
H1075       H  0.39739724  0.58939840  0.86046702     0.38100
H1076       H  0.37984454  0.61336446  0.85656226     0.33600
C1077       C  0.52404014  0.70357735  0.83190101    -0.20200
C1078       C  0.54888074  0.73195184  0.82387355     0.36000
C1079       C  0.54680846  0.76206828  0.82311669    -0.26200
C1080       C  0.52086842  0.76447112  0.83049329     0.02500
C1081       C  0.49628781  0.73611429  0.83856630     0.27300
C1082       C  0.49757550  0.70581968  0.83881852    -0.25300
N1083       N  0.57584810  0.73003175  0.81649788    -0.82700
H1084       H  0.56546558  0.78373873  0.81679313     0.13100
C1085       C  0.51904903  0.79641531  0.82978519     0.02400
N1086       N  0.47063583  0.73854724  0.84684027    -0.81200
H1087       H  0.47857007  0.68426961  0.84508438     0.17900
C1088       C  0.48788350  0.79382966  0.82571243    -0.26100
C1089       C  0.48338016  0.82232122  0.82642352     0.35900
C1090       C  0.51086546  0.85429901  0.83108455    -0.20100
C1091       C  0.54265133  0.85745510  0.83442561    -0.25400
C1092       C  0.54691710  0.82868754  0.83402862     0.27300
H1093       H  0.46676551  0.76922241  0.82214280     0.13100
N1094       N  0.45118989  0.81902026  0.82222498    -0.82600
H1095       H  0.56391024  0.88225754  0.83772660     0.17900
N1096       N  0.57907629  0.83196858  0.83822638    -0.81200
H1097       H  0.43355833  0.79368487  0.81920095     0.33600
H1098       H  0.45572371  0.83419075  0.81306828     0.38100
H1099       H  0.59692610  0.85745843  0.84095850     0.33500
H1100       H  0.57466218  0.81737105  0.84755577     0.30200
H1101       H  0.45452513  0.71544077  0.85219530     0.33500
H1102       H  0.48341141  0.75719715  0.85480836     0.30200
H1103       H  0.56433967  0.71097495  0.80858711     0.38100
H1104       H  0.59200384  0.75310153  0.81112688     0.33600
C1105       C  0.57660809  0.38891087  0.65717048    -0.20200
C1106       C  0.55484778  0.36177853  0.66651595     0.36000
C1107       C  0.55112844  0.32930617  0.66476077    -0.26200
C1108       C  0.56899330  0.32323604  0.65395163     0.02500
C1109       C  0.59142943  0.35029291  0.64475582     0.27300
C1110       C  0.59508973  0.38299773  0.64647447    -0.25300
N1111       N  0.53694037  0.36718360  0.67802599    -0.82700
H1112       H  0.53405840  0.30858504  0.67189632     0.13100
C1113       C  0.56360548  0.28820106  0.65253824     0.02400
N1114       N  0.61033651  0.34441446  0.63377347    -0.81200
H1115       H  0.61201967  0.40374842  0.63933177     0.17900
C1116       C  0.54809124  0.26901487  0.64007113    -0.26100
C1117       C  0.54077123  0.23492791  0.63872824     0.35900
C1118       C  0.54942655  0.21994264  0.65011839    -0.20100
C1119       C  0.56504087  0.23934031  0.66256388    -0.25400
C1120       C  0.57222926  0.27332769  0.66388767     0.27300
H1121       H  0.54146135  0.28064729  0.63141491     0.13100
N1122       N  0.52615967  0.21619602  0.62559676    -0.82600
H1123       H  0.57229058  0.22811434  0.67116998     0.17900
N1124       N  0.58873946  0.29306480  0.67660667    -0.81200
H1125       H  0.52390465  0.23188494  0.61794179     0.33600
H1126       H  0.50111776  0.19648313  0.62789005     0.38100
H1127       H  0.59332761  0.27835385  0.68396051     0.33500
H1128       H  0.61280144  0.31352779  0.67354446     0.30200
H1129       H  0.62562716  0.36693389  0.62791058     0.33500
H1130       H  0.62713681  0.33833120  0.63891420     0.30200
H1131       H  0.51060143  0.34999907  0.67667718     0.38100
H1132       H  0.54448700  0.36124034  0.68771664     0.33600
C1133       C  0.71494857  0.54142874  0.65470277    -0.20200
C1134       C  0.72109039  0.52574603  0.66653206     0.36000
C1135       C  0.74985472  0.52162553  0.66644793    -0.26200
C1136       C  0.77231475  0.53243180  0.65463046     0.02500
C1137       C  0.76697844  0.54915474  0.64301000     0.27300
C1138       C  0.73847009  0.55370997  0.64320523    -0.25300
N1139       N  0.69799480  0.51362957  0.67855411    -0.82700
H1140       H  0.75412502  0.50901876  0.67545144     0.13100
C1141       C  0.80091457  0.52539949  0.65438995     0.02400
N1142       N  0.79012983  0.56071336  0.63093333    -0.81200
H1143       H  0.73362804  0.56527520  0.63397340     0.17900
C1144       C  0.80056006  0.50212707  0.64425899    -0.26100
C1145       C  0.82717964  0.49457062  0.64375708     0.35900
C1146       C  0.85518111  0.51143874  0.65340360    -0.20100
C1147       C  0.85515331  0.53465546  0.66356293    -0.25400
C1148       C  0.82830974  0.54168743  0.66418223     0.27300
H1149       H  0.77916456  0.48953813  0.63682634     0.13100
N1150       N  0.82598553  0.47036100  0.63336739    -0.82600
H1151       H  0.87622375  0.54744504  0.67112788     0.17900
N1152       N  0.82884439  0.56550419  0.67463528    -0.81200
H1153       H  0.80492590  0.46223778  0.62648827     0.33600
H1154       H  0.82153504  0.44849750  0.63904325     0.38100
H1155       H  0.85071419  0.57512084  0.68113758     0.33500
H1156       H  0.83080643  0.58649983  0.66903672     0.30200
H1157       H  0.78228361  0.57201483  0.62316260     0.33500
H1158       H  0.81418293  0.58000293  0.63462751     0.30200
H1159       H  0.68854149  0.48726265  0.67969581     0.38100
H1160       H  0.71204099  0.52601194  0.68781360     0.33600
C1161       C  0.56130602  0.52560182  0.71067410    -0.20200
C1162       C  0.55012187  0.50228751  0.72233760     0.36000
C1163       C  0.54342047  0.51211194  0.73566536    -0.26200
C1164       C  0.54835477  0.54501158  0.73770575     0.02500
C1165       C  0.56094946  0.56901800  0.72640371     0.27300
C1166       C  0.56726650  0.55907009  0.71294703    -0.25300
N1167       N  0.54608885  0.46883422  0.72083083    -0.82700
H1168       H  0.53420820  0.49389896  0.74449743     0.13100
C1169       C  0.53873827  0.55315175  0.75165368     0.02400
N1170       N  0.56689676  0.60315270  0.72862304    -0.81200
H1171       H  0.57624631  0.57734939  0.70415282     0.17900
C1172       C  0.56440335  0.57374557  0.76154131    -0.26100
C1173       C  0.55585110  0.57955900  0.77539155     0.35900
C1174       C  0.52070972  0.56380163  0.77940872    -0.20100
C1175       C  0.49519588  0.54417203  0.76914758    -0.25400
C1176       C  0.50390313  0.53882162  0.75530734     0.27300
H1177       H  0.59115606  0.58486815  0.75848260     0.13100
N1178       N  0.58271450  0.60119870  0.78531247    -0.82600
H1179       H  0.46824729  0.53225444  0.77198194     0.17900
N1180       N  0.47757085  0.51836172  0.74498310    -0.81200
H1181       H  0.60694058  0.60989398  0.78074235     0.33600
H1182       H  0.58086625  0.62305366  0.78717629     0.38100
H1183       H  0.45314757  0.50938083  0.74939743     0.33500
H1184       H  0.48001714  0.53444023  0.73641212     0.30200
H1185       H  0.57652048  0.61779629  0.71924536     0.33500
H1186       H  0.54311907  0.60101127  0.73068392     0.30200
H1187       H  0.56220358  0.46671837  0.72830432     0.38100
H1188       H  0.52067373  0.45048354  0.72340945     0.33600
C1189       C  0.36474665  0.14100517  0.82519937    -0.20200
C1190       C  0.36910963  0.13102204  0.81134696     0.36000
C1191       C  0.38951035  0.11580802  0.80963966    -0.26200
C1192       C  0.40556544  0.11061987  0.82153460     0.02500
C1193       C  0.40329661  0.12315219  0.83517061     0.27300
C1194       C  0.38286273  0.13820063  0.83685022    -0.25300
N1195       N  0.35087507  0.13407824  0.79932102    -0.82700
H1196       H  0.39121083  0.10603560  0.79919302     0.13100
C1197       C  0.41880395  0.08655155  0.82026843     0.02400
N1198       N  0.42003809  0.11866040  0.84742266    -0.81200
H1199       H  0.37932558  0.14588113  0.84748369     0.17900
C1200       C  0.45379887  0.09808293  0.82247702    -0.26100
C1201       C  0.46572532  0.07461374  0.82323648     0.35900
C1202       C  0.44191123  0.03888214  0.82200351    -0.20100
C1203       C  0.40722765  0.02782287  0.81917197    -0.25400
C1204       C  0.39542810  0.05111462  0.81839603     0.27300
H1205       H  0.47161680  0.12534850  0.82400114     0.13100
N1206       N  0.50142392  0.08685267  0.82600561    -0.82600
H1207       H  0.38882284  0.00056637  0.81806386     0.17900
N1208       N  0.35942495  0.03876097  0.81631093    -0.81200
H1209       H  0.51501008  0.11356384  0.82738638     0.33600
H1210       H  0.51160152  0.08197414  0.81679185     0.38100
H1211       H  0.34564462  0.01202852  0.81501926     0.33500
H1212       H  0.35012163  0.04400268  0.82571021     0.30200
H1213       H  0.41602628  0.12954450  0.85662814     0.33500
H1214       H  0.40839600  0.09225941  0.84939391     0.30200
H1215       H  0.36030140  0.16029637  0.79767788     0.38100
H1216       H  0.35625809  0.12484514  0.78993552     0.33600
C1217       C  0.38683875  0.30294840  0.82394511    -0.20200
C1218       C  0.39935056  0.32717534  0.81263297     0.36000
C1219       C  0.42378064  0.36172031  0.81558379    -0.26200
C1220       C  0.43571782  0.37267220  0.82962959     0.02500
C1221       C  0.42507536  0.34812500  0.84077271     0.27300
C1222       C  0.40093176  0.31327826  0.83778813    -0.25300
N1223       N  0.38626340  0.31673446  0.79826582    -0.82700
H1224       H  0.43196223  0.38062988  0.80704596     0.13100
C1225       C  0.45407918  0.41024903  0.83262686     0.02400
N1226       N  0.43777057  0.35898691  0.85514060    -0.81200
H1227       H  0.39150627  0.29461143  0.84644435     0.17900
C1228       C  0.43583765  0.42354504  0.83964847    -0.26100
C1229       C  0.44726168  0.45885801  0.83915750     0.35900
C1230       C  0.47783371  0.48138725  0.83169704    -0.20100
C1231       C  0.49797105  0.46866578  0.82595887    -0.25400
C1232       C  0.48618862  0.43309527  0.82626888     0.27300
H1233       H  0.41118126  0.40595725  0.84451857     0.13100
N1234       N  0.42684071  0.47174858  0.84539244    -0.82600
H1235       H  0.52137214  0.48599223  0.82018914     0.17900
N1236       N  0.50563383  0.41978994  0.81947723    -0.81200
H1237       H  0.40479881  0.45184629  0.85027214     0.33600
H1238       H  0.44140385  0.48894070  0.85358290     0.38100
H1239       H  0.52849170  0.43985355  0.81518524     0.33500
H1240       H  0.51267359  0.40832899  0.82749372     0.30200
H1241       H  0.42727910  0.33789758  0.86211901     0.33500
H1242       H  0.46430947  0.36877422  0.85492719     0.30200
H1243       H  0.39344812  0.29926188  0.79474978     0.38100
H1244       H  0.39776953  0.33768249  0.79122415     0.33600
C1245       C  0.32791709  0.19151458  0.87462416    -0.20200
C1246       C  0.31323410  0.16969891  0.88678021     0.36000
C1247       C  0.32922877  0.18032663  0.90029306    -0.26200
C1248       C  0.35901090  0.21246300  0.90218365     0.02500
C1249       C  0.37275309  0.23504510  0.89037054     0.27300
C1250       C  0.35724295  0.22432128  0.87672003    -0.25300
N1251       N  0.28228894  0.13668854  0.88545829    -0.82700
H1252       H  0.31866241  0.16314206  0.90943205     0.13100
C1253       C  0.37629681  0.22104893  0.91647381     0.02400
N1254       N  0.40253293  0.26867166  0.89228618    -0.81200
H1255       H  0.36855463  0.24154810  0.86764432     0.17900
C1256       C  0.40933377  0.22569135  0.91764654    -0.26100
C1257       C  0.42532328  0.23047733  0.93110966     0.35900
C1258       C  0.40828422  0.23122510  0.94379647    -0.20100
C1259       C  0.37526713  0.22694784  0.94250483    -0.25400
C1260       C  0.35911288  0.22181358  0.92903158     0.27300
H1261       H  0.42244991  0.22458045  0.90805679     0.13100
N1262       N  0.45873389  0.23420911  0.93176792    -0.82600
H1263       H  0.36150572  0.22661424  0.95208615     0.17900
N1264       N  0.32512368  0.21688071  0.92805373    -0.81200
H1265       H  0.45711971  0.21219797  0.92724335     0.33600
H1266       H  0.47547976  0.25532367  0.92544132     0.38100
H1267       H  0.31580315  0.21767183  0.93827279     0.33500
H1268       H  0.32697153  0.23759568  0.92226777     0.30200
H1269       H  0.40951246  0.28216035  0.88255302     0.33500
H1270       H  0.39568699  0.28235695  0.89929912     0.30200
H1271       H  0.27579777  0.12354622  0.89527357     0.38100
H1272       H  0.26229188  0.14112882  0.88300029     0.33600
C1273       C  0.93182729  0.25066413  0.82492581    -0.20200
C1274       C  0.94644167  0.26474167  0.81144616     0.36000
C1275       C  0.96120619  0.30035018  0.80920535    -0.26200
C1276       C  0.96189852  0.32197671  0.82027488     0.02500
C1277       C  0.94480586  0.30736640  0.83336149     0.27300
C1278       C  0.92981495  0.27173264  0.83553307    -0.25300
N1279       N  0.94866603  0.24330065  0.80055046    -0.82700
H1280       H  0.97458075  0.31171287  0.79921109     0.13100
C1281       C  0.98676870  0.35954481  0.81930039     0.02400
N1282       N  0.94480368  0.32903983  0.84473173    -0.81200
H1283       H  0.91878551  0.26073680  0.84592696     0.17900
C1284       C  0.97559089  0.38345075  0.81900531    -0.26100
C1285       C  0.99942362  0.41925991  0.81948422     0.35900
C1286       C  0.03502493  0.43109725  0.82050457    -0.20100
C1287       C  0.04581155  0.40684144  0.82025331    -0.25400
C1288       C  0.02223300  0.37143836  0.81984343     0.27300
H1289       H  0.94824804  0.37409844  0.81867155     0.13100
N1290       N  0.98747150  0.44329259  0.81954878    -0.82600
H1291       H  0.07297231  0.41546117  0.82086074     0.17900
N1292       N  0.03414390  0.34734924  0.82049662    -0.81200
H1293       H  0.96058941  0.43025317  0.81943673     0.33600
H1294       H  0.99555448  0.45716503  0.80992529     0.38100
H1295       H  0.06101279  0.36022424  0.82076119     0.33500
H1296       H  0.02557902  0.33398001  0.83022407     0.30200
H1297       H  0.93097620  0.31423512  0.85361625     0.33500
H1298       H  0.97020354  0.34475653  0.84817224     0.30200
H1299       H  0.92356624  0.22509202  0.79749104     0.38100
H1300       H  0.96091515  0.25775066  0.79136204     0.33600
C1301       C  0.03214182  0.17864881  0.81961799    -0.20200
C1302       C  0.04033436  0.15886300  0.81032098     0.36000
C1303       C  0.07422705  0.16530735  0.80991743    -0.26200
C1304       C  0.10012525  0.19122681  0.81840757     0.02500
C1305       C  0.09250325  0.21201772  0.82711548     0.27300
C1306       C  0.05869573  0.20568750  0.82756387    -0.25300
N1307       N  0.01436062  0.13212306  0.80144950    -0.82700
H1308       H  0.08048962  0.14975485  0.80308619     0.13100
C1309       C  0.13468740  0.19504950  0.81866411     0.02400
N1310       N  0.11892082  0.23875700  0.83582062    -0.81200
H1311       H  0.05288890  0.22118772  0.83462809     0.17900
C1312       C  0.16326531  0.22546447  0.81365413    -0.26100
C1313       C  0.19622881  0.22933074  0.81332720     0.35900
C1314       C  0.20056847  0.20200942  0.81816705    -0.20100
C1315       C  0.17186037  0.17218731  0.82374641    -0.25400
C1316       C  0.13906904  0.16836269  0.82395662     0.27300
H1317       H  0.15962373  0.24594120  0.80968007     0.13100
N1318       N  0.22472197  0.26018196  0.80749175    -0.82600
H1319       H  0.17470206  0.15109773  0.82755004     0.17900
N1320       N  0.11000828  0.13720962  0.82930397    -0.81200
H1321       H  0.21662176  0.27669130  0.80368734     0.33600
H1322       H  0.24170827  0.27315188  0.81596096     0.38100
H1323       H  0.11745118  0.11981597  0.83259682     0.33500
H1324       H  0.10093751  0.14356714  0.83847462     0.30200
H1325       H  0.10915388  0.25183681  0.84158756     0.33500
H1326       H  0.12662217  0.22699977  0.84343449     0.30200
H1327       H  0.00651757  0.14389117  0.79390085     0.38100
H1328       H  0.02456586  0.11958051  0.79558195     0.33600
C1329       C  0.77319815  0.10092807  0.82485195    -0.20200
C1330       C  0.74867079  0.08037039  0.81432302     0.36000
C1331       C  0.71434957  0.07172098  0.81601254    -0.26200
C1332       C  0.70390917  0.08315493  0.82795395     0.02500
C1333       C  0.72835013  0.10423802  0.83834445     0.27300
C1334       C  0.76297162  0.11323317  0.83663202    -0.25300
N1335       N  0.75871464  0.06830604  0.80194690    -0.82700
H1336       H  0.69537830  0.05534899  0.80810193     0.13100
C1337       C  0.66671338  0.07048218  0.82964044     0.02400
N1338       N  0.71777811  0.11596834  0.85063219    -0.81200
H1339       H  0.78177064  0.12896528  0.84471141     0.17900
C1340       C  0.64817840  0.04585907  0.84026958    -0.26100
C1341       C  0.61214796  0.02622877  0.83973424     0.35900
C1342       C  0.59437355  0.03193728  0.82868541    -0.20100
C1343       C  0.61270620  0.05885402  0.81891022    -0.25400
C1344       C  0.64887381  0.07808038  0.81921093     0.27300
H1345       H  0.66176558  0.03978786  0.84824925     0.13100
N1346       N  0.59371136  0.99870827  0.84975127    -0.82600
H1347       H  0.59901464  0.06263748  0.81020512     0.17900
N1348       N  0.66770356  0.10365867  0.80841007    -0.81200
H1349       H  0.59931496  0.00911228  0.86013757     0.33600
H1350       H  0.60287250  0.98167657  0.84881525     0.38100
H1351       H  0.65083247  0.10578116  0.80137424     0.33500
H1352       H  0.68173106  0.12737308  0.81365398     0.30200
H1353       H  0.73880986  0.13108494  0.85731341     0.33500
H1354       H  0.70899635  0.13194962  0.84686702     0.30200
H1355       H  0.73752958  0.05319460  0.79533790     0.38100
H1356       H  0.77573282  0.08984509  0.79588546     0.33600
C1357       C  0.83055861  0.20690624  0.94215021    -0.20200
C1358       C  0.83150512  0.22372934  0.92918011     0.36000
C1359       C  0.83885705  0.21306236  0.91614182    -0.26200
C1360       C  0.84502486  0.18562565  0.91567932     0.02500
C1361       C  0.84236188  0.16755654  0.92843740     0.27300
C1362       C  0.83529644  0.17843696  0.94153212    -0.25300
N1363       N  0.82514459  0.25174547  0.92914128    -0.82700
H1364       H  0.84068655  0.22694903  0.90635967     0.13100
C1365       C  0.85643117  0.17765792  0.90194462     0.02400
N1366       N  0.84728801  0.13851352  0.92804635    -0.81200
H1367       H  0.83453825  0.16520256  0.95135217     0.17900
C1368       C  0.88855854  0.17995030  0.90140026    -0.26100
C1369       C  0.90148723  0.17469021  0.88847125     0.35900
C1370       C  0.88206993  0.16768436  0.87563543    -0.20100
C1371       C  0.84946734  0.16467860  0.87634919    -0.25400
C1372       C  0.83643283  0.16941954  0.88934629     0.27300
H1373       H  0.90384909  0.18632802  0.91112674     0.13100
N1374       N  0.93421897  0.17653138  0.88841768    -0.82600
H1375       H  0.83414487  0.15911545  0.86667565     0.17900
N1376       N  0.80303937  0.16607489  0.88979954    -0.81200
H1377       H  0.94540128  0.18277223  0.89865151     0.33600
H1378       H  0.92967358  0.15190180  0.88605272     0.38100
H1379       H  0.79167395  0.16009578  0.87959813     0.33500
H1380       H  0.78740417  0.14517628  0.89644997     0.30200
H1381       H  0.84468257  0.12816267  0.93834753     0.33500
H1382       H  0.82754671  0.11943061  0.92178190     0.30200
H1383       H  0.84673507  0.27329570  0.92481584     0.38100
H1384       H  0.80427023  0.24522032  0.92233942     0.33600
C1385       C  0.69083378  0.20298453  0.00098922    -0.20200
C1386       C  0.68801956  0.22757520  0.99257888     0.36000
C1387       C  0.65851806  0.23044544  0.99381352    -0.26200
C1388       C  0.63158168  0.20919908  0.00315934     0.02500
C1389       C  0.63373806  0.18394945  0.01121812     0.27300
C1390       C  0.66318501  0.18092515  0.00997969    -0.25300
N1391       N  0.71526147  0.24981661  0.98292913    -0.82700
H1392       H  0.65646235  0.24941571  0.98745269     0.13100
C1393       C  0.60091370  0.21323675  0.00400258     0.02400
N1394       N  0.60644929  0.16218247  0.02093463    -0.81200
H1395       H  0.66528273  0.16244500  0.01666543     0.17900
C1396       C  0.56921668  0.18667978  0.99896719    -0.26100
C1397       C  0.54030953  0.19065493  0.99822702     0.35900
C1398       C  0.54342293  0.22252558  0.00221995    -0.20100
C1399       C  0.57484737  0.24834868  0.00808073    -0.25400
C1400       C  0.60345872  0.24386298  0.00913450     0.27300
H1401       H  0.56722888  0.16290809  0.99532514     0.13100
N1402       N  0.50800659  0.16245359  0.99329949    -0.82600
H1403       H  0.57745463  0.27250249  0.01153168     0.17900
N1404       N  0.63524708  0.27039576  0.01524071    -0.81200
H1405       H  0.49086212  0.15454847  0.00197241     0.33600
H1406       H  0.51042266  0.14133426  0.99049544     0.38100
H1407       H  0.63293356  0.29127770  0.01855599     0.33500
H1408       H  0.63994040  0.26035543  0.02452330     0.30200
H1409       H  0.61196688  0.14499289  0.02609701     0.33500
H1410       H  0.60541120  0.17789934  0.02896736     0.30200
H1411       H  0.71697869  0.23433748  0.97497137     0.38100
H1412       H  0.70933377  0.26660740  0.97767391     0.33600
C1413       C  0.81717049  0.70195559  0.82742869    -0.20200
C1414       C  0.80236437  0.69975069  0.81386664     0.36000
C1415       C  0.76634794  0.68097054  0.81231837    -0.26200
C1416       C  0.74481287  0.66490928  0.82422922     0.02500
C1417       C  0.75972932  0.66527749  0.83762762     0.27300
C1418       C  0.79577177  0.68359321  0.83904257    -0.25300
N1419       N  0.82368608  0.71868713  0.80193034    -0.82700
H1420       H  0.75509383  0.68094025  0.80201882     0.13100
C1421       C  0.70748578  0.65312476  0.82327889     0.02400
N1422       N  0.73824792  0.64910862  0.84997691    -0.81200
H1423       H  0.80717659  0.68588048  0.84954825     0.17900
C1424       C  0.68251808  0.61860932  0.82600474    -0.26100
C1425       C  0.64735344  0.60814937  0.82729307     0.35900
C1426       C  0.63709471  0.63282960  0.82580703    -0.20100
C1427       C  0.66202804  0.66692072  0.82236865    -0.25400
C1428       C  0.69698256  0.67735400  0.82117932     0.27300
H1429       H  0.69069671  0.60009333  0.82765413     0.13100
N1430       N  0.62242415  0.57299773  0.83066771    -0.82600
H1431       H  0.65433839  0.68590947  0.82104618     0.17900
N1432       N  0.72207324  0.71283858  0.81840295    -0.81200
H1433       H  0.63414700  0.55815665  0.83121118     0.33600
H1434       H  0.61284588  0.57263155  0.84096420     0.38100
H1435       H  0.71013715  0.72730259  0.81699199     0.33500
H1436       H  0.73756843  0.72268715  0.82755375     0.30200
H1437       H  0.75322062  0.65165454  0.85898728     0.33500
H1438       H  0.72541911  0.66234200  0.85237220     0.30200
H1439       H  0.81607985  0.73579913  0.79840994     0.38100
H1440       H  0.81909750  0.70128722  0.79358362     0.33600
C1441       C  0.89899532  0.87878916  0.82308783    -0.20200
C1442       C  0.86890987  0.87690298  0.82868464     0.36000
C1443       C  0.86652845  0.90662310  0.82937065    -0.26200
C1444       C  0.89337627  0.93832942  0.82445588     0.02500
C1445       C  0.92356518  0.94055239  0.81896308     0.27300
C1446       C  0.92613452  0.91084010  0.81841119    -0.25300
N1447       N  0.84049601  0.84493394  0.83358940    -0.82700
H1448       H  0.84331661  0.90485330  0.83362642     0.13100
C1449       C  0.88867169  0.96851169  0.82432034     0.02400
N1450       N  0.95124949  0.97284918  0.81376007    -0.81200
H1451       H  0.94949732  0.91281595  0.81425201     0.17900
C1452       C  0.91198438  0.99863391  0.83169559    -0.26100
C1453       C  0.90970513  0.02850747  0.83080567     0.35900
C1454       C  0.88314305  0.02794784  0.82252526    -0.20100
C1455       C  0.85893099  0.99718778  0.81573799    -0.25400
C1456       C  0.86175956  0.96769365  0.81633914     0.27300
H1457       H  0.93242796  0.99898013  0.83792238     0.13100
N1458       N  0.93456666  0.05946221  0.83805289    -0.82600
H1459       H  0.83888412  0.99669830  0.80917142     0.17900
N1460       N  0.83826131  0.93732670  0.80838050    -0.81200
H1461       H  0.95259693  0.05561758  0.84348271     0.33600
H1462       H  0.92148403  0.06505457  0.84589542     0.38100
H1463       H  0.81998397  0.94093838  0.80303909     0.33500
H1464       H  0.85238993  0.93353903  0.80040741     0.30200
H1465       H  0.97171937  0.97016673  0.81017125     0.33500
H1466       H  0.94221161  0.97983368  0.80479205     0.30200
H1467       H  0.83584916  0.84785821  0.84438361     0.38100
H1468       H  0.81876280  0.83980802  0.82763140     0.33600
C1469       C  0.18749389  0.04749191  0.81923375    -0.20200
C1470       C  0.15463882  0.04027574  0.81449157     0.36000
C1471       C  0.12687695  0.00605375  0.81459362    -0.26200
C1472       C  0.13081031  0.97893857  0.81963052     0.02500
C1473       C  0.16338578  0.98603386  0.82437388     0.27300
C1474       C  0.19128378  0.01999707  0.82401059    -0.25300
N1475       N  0.14928151  0.06747730  0.80972605    -0.82700
H1476       H  0.10185796  0.00046402  0.81081735     0.13100
C1477       C  0.10067619  0.94319041  0.81973958     0.02400
N1478       N  0.16791494  0.95874433  0.82974223    -0.81200
H1479       H  0.21613619  0.02497266  0.82770914     0.17900
C1480       C  0.10248011  0.91720562  0.81217977    -0.26100
C1481       C  0.07389109  0.88362152  0.81118860     0.35900
C1482       C  0.04267128  0.87565365  0.81807815    -0.20100
C1483       C  0.04145602  0.90154308  0.82609680    -0.25400
C1484       C  0.07004708  0.93507944  0.82702179     0.27300
H1485       H  0.12599711  0.92354642  0.80653628     0.13100
N1486       N  0.07621114  0.85823369  0.80267452    -0.82600
H1487       H  0.01779853  0.89580751  0.83146209     0.17900
N1488       N  0.06802574  0.96103565  0.83523333    -0.81200
H1489       H  0.10126619  0.86794495  0.79884794     0.33600
H1490       H  0.06070963  0.85327429  0.79359141     0.38100
H1491       H  0.04362360  0.95102691  0.83982907     0.33500
H1492       H  0.08544919  0.96818471  0.84376011     0.30200
H1493       H  0.19349208  0.96816515  0.83273520     0.33500
H1494       H  0.15316002  0.94924760  0.83910696     0.30200
H1495       H  0.15197014  0.08270625  0.81869052     0.38100
H1496       H  0.12408964  0.05753674  0.80605043     0.33600
C1497       C  0.96801694  0.69281467  0.82539545    -0.20200
C1498       C  0.96409600  0.67562012  0.83856475     0.36000
C1499       C  0.97672642  0.65284987  0.83982106    -0.26200
C1500       C  0.99306204  0.64717914  0.82815832     0.02500
C1501       C  0.99617584  0.66375557  0.81493235     0.27300
C1502       C  0.98355667  0.68628757  0.81369015    -0.25300
N1503       N  0.94878872  0.68246598  0.85073086    -0.82700
H1504       H  0.97494097  0.64043306  0.85001815     0.13100
C1505       C  0.01064738  0.62729666  0.83006769     0.02400
N1506       N  0.01314222  0.65840946  0.80293910    -0.81200
H1507       H  0.98670975  0.69964359  0.80360843     0.17900
C1508       C  0.99674661  0.59461075  0.82372314    -0.26100
C1509       C  0.01685243  0.57909405  0.82194524     0.35900
C1510       C  0.05151064  0.59705981  0.82642542    -0.20100
C1511       C  0.06418261  0.62819985  0.83397903    -0.25400
C1512       C  0.04417857  0.64361551  0.83578162     0.27300
H1513       H  0.97095626  0.58227983  0.81932763     0.13100
N1514       N  0.00319582  0.54676803  0.81452939    -0.82600
H1515       H  0.09073865  0.64181345  0.83753397     0.17900
N1516       N  0.05854865  0.67683607  0.84253101    -0.81200
H1517       H  0.97773067  0.53763876  0.81143809     0.33600
H1518       H  0.00252578  0.52890500  0.82186569     0.38100
H1519       H  0.08341609  0.68517269  0.84625788     0.33500
H1520       H  0.06093316  0.69445572  0.83466435     0.30200
H1521       H  0.01295829  0.67219682  0.79394288     0.33500
H1522       H  0.03895957  0.66854919  0.80572470     0.30200
H1523       H  0.96487595  0.70824044  0.85364148     0.38100
H1524       H  0.94786770  0.66775238  0.85958406     0.33600
C1525       C  0.53633034  0.36975464  0.00150831    -0.20200
C1526       C  0.56144519  0.37237986  0.99173027     0.36000
C1527       C  0.59407501  0.40220201  0.99149478    -0.26200
C1528       C  0.60263506  0.42943858  0.00110626     0.02500
C1529       C  0.57714680  0.42755336  0.01054468     0.27300
C1530       C  0.54409711  0.39787286  0.01051237    -0.25300
N1531       N  0.55401929  0.34457428  0.98212115    -0.82700
H1532       H  0.61317476  0.40375565  0.98396488     0.13100
C1533       C  0.63858712  0.45921458  0.00124573     0.02400
N1534       N  0.58528306  0.45509831  0.02050090    -0.81200
H1535       H  0.52505634  0.39580052  0.01820049     0.17900
C1536       C  0.64471585  0.49256941  0.99901653    -0.26100
C1537       C  0.67840029  0.52091402  0.99791630     0.35900
C1538       C  0.70680975  0.51575008  0.99897260    -0.20100
C1539       C  0.70052633  0.48248470  0.00186389    -0.25400
C1540       C  0.66681178  0.45427375  0.00308200     0.27300
H1541       H  0.62305798  0.49639727  0.99771194     0.13100
N1542       N  0.68361379  0.55483231  0.99592575    -0.82600
H1543       H  0.72200864  0.47829009  0.00290046     0.17900
N1544       N  0.66106273  0.42052505  0.00612876    -0.81200
H1545       H  0.66052951  0.55460116  0.99736400     0.33600
H1546       H  0.69056304  0.56163699  0.98517412     0.38100
H1547       H  0.68443870  0.42117026  0.00712205     0.33500
H1548       H  0.64887218  0.41301363  0.01614679     0.30200
H1549       H  0.56374684  0.44966883  0.02669752     0.33500
H1550       H  0.60380668  0.45645114  0.02764084     0.30200
H1551       H  0.57172939  0.33664825  0.98408747     0.38100
H1552       H  0.55773179  0.35390087  0.97158147     0.33600
C1553       C  0.83500847  0.35554399  0.99553972    -0.20200
C1554       C  0.81091383  0.36294992  0.00188972     0.36000
C1555       C  0.81790009  0.39704310  0.00204186    -0.26200
C1556       C  0.84792838  0.42367881  0.99580632     0.02500
C1557       C  0.87193667  0.41660362  0.98949821     0.27300
C1558       C  0.86539765  0.38272800  0.98951342    -0.25300
N1559       N  0.77938237  0.33609500  0.00803979    -0.82700
H1560       H  0.79964864  0.40292412  0.00690497     0.13100
C1561       C  0.85375863  0.45894648  0.99597680     0.02400
N1562       N  0.90265218  0.44383100  0.98296902    -0.81200
H1563       H  0.88407854  0.37758984  0.98458167     0.17900
C1564       C  0.87967098  0.48382607  0.00476254    -0.26100
C1565       C  0.88391435  0.51673363  0.00625908     0.35900
C1566       C  0.86149971  0.52466958  0.99880134    -0.20100
C1567       C  0.83662667  0.50005107  0.98946487    -0.25400
C1568       C  0.83266273  0.46729898  0.98793109     0.27300
H1569       H  0.89586109  0.47709118  0.01084333     0.13100
N1570       N  0.90933903  0.54113066  0.01603468    -0.82600
H1571       H  0.81948229  0.50603225  0.98369615     0.17900
N1572       N  0.80680840  0.44214647  0.97851526    -0.81200
H1573       H  0.92174505  0.53019392  0.02143766     0.33600
H1574       H  0.92822810  0.56121874  0.00985518     0.38100
H1575       H  0.79324191  0.45226619  0.97344236     0.33500
H1576       H  0.81944548  0.43676889  0.97038628     0.30200
H1577       H  0.91779069  0.43437457  0.97882826     0.33500
H1578       H  0.89518277  0.45298440  0.97419252     0.30200
H1579       H  0.76403308  0.32057197  0.99958434     0.38100
H1580       H  0.76562407  0.34631384  0.01290943     0.33600
C1581       C  0.86108517  0.65976438  0.94475801    -0.20200
C1582       C  0.84466188  0.64306890  0.93176309     0.36000
C1583       C  0.85732821  0.66018382  0.91858759    -0.26200
C1584       C  0.88657526  0.69321140  0.91797564     0.02500
C1585       C  0.90378728  0.70944312  0.93084007     0.27300
C1586       C  0.89065224  0.69271327  0.94407419    -0.25300
N1587       N  0.81515340  0.60884616  0.93193381    -0.82700
H1588       H  0.84393488  0.64787141  0.90870803     0.13100
C1589       C  0.89709495  0.71115894  0.90385651     0.02400
N1590       N  0.93429774  0.74295787  0.93040414    -0.81200
H1591       H  0.90305245  0.70586856  0.95392854     0.17900
C1592       C  0.89892321  0.74291962  0.90231606    -0.26100
C1593       C  0.90485076  0.75901590  0.88883543     0.35900
C1594       C  0.90779199  0.74231680  0.87642503    -0.20100
C1595       C  0.90751300  0.71121883  0.87813675    -0.25400
C1596       C  0.90261970  0.69571613  0.89173000     0.27300
H1597       H  0.89480825  0.75483690  0.91164697     0.13100
N1598       N  0.90751958  0.79206818  0.88775525    -0.82600
H1599       H  0.91008291  0.69835036  0.86879078     0.17900
N1600       N  0.90267754  0.66406313  0.89325799    -0.81200
H1601       H  0.90415723  0.80036307  0.89782275     0.33600
H1602       H  0.93262726  0.80977426  0.88449893     0.38100
H1603       H  0.90695417  0.65597026  0.88331553     0.33500
H1604       H  0.92348643  0.66905958  0.89983783     0.30200
H1605       H  0.94366562  0.75152060  0.94079126     0.33500
H1606       H  0.95322541  0.74058306  0.92492118     0.30200
H1607       H  0.80585791  0.60063425  0.92150413     0.38100
H1608       H  0.82328193  0.59234421  0.93571556     0.33600
C1609       C  0.84506972  0.97654247  0.71584726    -0.20200
C1610       C  0.88137773  0.99365883  0.71568029     0.36000
C1611       C  0.90001339  0.01525856  0.72730028    -0.26200
C1612       C  0.88273475  0.01934939  0.73897919     0.02500
C1613       C  0.84659266  0.99933069  0.73980571     0.27300
C1614       C  0.82807993  0.97822576  0.72818191    -0.25300
N1615       N  0.89905984  0.99164371  0.70317060    -0.82700
H1616       H  0.92782787  0.03055744  0.72683462     0.13100
C1617       C  0.90127641  0.04777664  0.74936108     0.02400
N1618       N  0.82885089  0.00257448  0.75203526    -0.81200
H1619       H  0.80022241  0.96508776  0.72826163     0.17900
C1620       C  0.89758497  0.07666018  0.74790438    -0.26100
C1621       C  0.90373410  0.09876682  0.75959812     0.35900
C1622       C  0.91464550  0.09226294  0.77276677    -0.20100
C1623       C  0.92264814  0.06605680  0.77363701    -0.25400
C1624       C  0.91555992  0.04327980  0.76203923     0.27300
H1625       H  0.88665641  0.07995317  0.73807955     0.13100
N1626       N  0.89594142  0.12584836  0.75862357    -0.82600
H1627       H  0.93061200  0.06092418  0.78388225     0.17900
N1628       N  0.92041564  0.01432620  0.76343998    -0.81200
H1629       H  0.88741895  0.12681638  0.74826980     0.33600
H1630       H  0.91889124  0.14914703  0.76023206     0.38100
H1631       H  0.93115275  0.01478323  0.77346286     0.33500
H1632       H  0.89617415  0.99196537  0.76320745     0.30200
H1633       H  0.80224355  0.98671353  0.75084722     0.33500
H1634       H  0.83575945  0.99361081  0.76104956     0.30200
H1635       H  0.89349082  0.96621886  0.70228833     0.38100
H1636       H  0.92568300  0.00682959  0.70454572     0.33600
C1637       C  0.71149261  0.82190285  0.65908470    -0.20200
C1638       C  0.69268432  0.79915682  0.64780165     0.36000
C1639       C  0.67423856  0.76356433  0.65041391    -0.26200
C1640       C  0.67457950  0.75048312  0.66406900     0.02500
C1641       C  0.69138290  0.77345662  0.67558662     0.27300
C1642       C  0.70964477  0.80911213  0.67298384    -0.25300
N1643       N  0.69405470  0.81233827  0.63357851    -0.82700
H1644       H  0.66136714  0.74589203  0.64157789     0.13100
C1645       C  0.66136156  0.71306120  0.66558554     0.02400
N1646       N  0.69108013  0.76033075  0.68969952    -0.81200
H1647       H  0.72443507  0.82678342  0.68156754     0.17900
C1648       C  0.68466749  0.70236615  0.66907185    -0.26100
C1649       C  0.67470945  0.66741954  0.66880759     0.35900
C1650       C  0.64075921  0.64259902  0.66478054    -0.20100
C1651       C  0.61685818  0.65310433  0.66212916    -0.25400
C1652       C  0.62691775  0.68821306  0.66243337     0.27300
H1653       H  0.71110429  0.72152505  0.67153509     0.13100
N1654       N  0.69908085  0.65706363  0.67241691    -0.82600
H1655       H  0.59074967  0.63407865  0.65914643     0.17900
N1656       N  0.60261573  0.69887336  0.65923151    -0.81200
H1657       H  0.69014621  0.64198133  0.68171190     0.33600
H1658       H  0.72294949  0.67845858  0.67502170     0.38100
H1659       H  0.57838626  0.67750283  0.65708757     0.33500
H1660       H  0.59996123  0.71056565  0.66848281     0.30200
H1661       H  0.70491141  0.78054051  0.69693942     0.33500
H1662       H  0.66558355  0.74720020  0.69328416     0.30200
H1663       H  0.68289172  0.82770613  0.63407884     0.38100
H1664       H  0.67913714  0.79225738  0.62643259     0.33600
C1665       C  0.69309194  0.96502876  0.66177537    -0.20200
C1666       C  0.67520161  0.95809103  0.64858338     0.36000
C1667       C  0.65017149  0.96769401  0.64681202    -0.26200
C1668       C  0.64313045  0.98448212  0.65789282     0.02500
C1669       C  0.66031920  0.99040482  0.67120525     0.27300
C1670       C  0.68483031  0.98040804  0.67300842    -0.25300
N1671       N  0.68361297  0.94292898  0.63684265    -0.82700
H1672       H  0.63716586  0.96345622  0.63656543     0.13100
C1673       C  0.62147418  0.00001715  0.65509762     0.02400
N1674       N  0.65388465  0.00790588  0.68266601    -0.81200
H1675       H  0.69844581  0.98566507  0.68315370     0.17900
C1676       C  0.59344436  0.99194845  0.66419826    -0.26100
C1677       C  0.57939934  0.01345060  0.66491957     0.35900
C1678       C  0.59273094  0.04271493  0.65606229    -0.20100
C1679       C  0.61791683  0.04844576  0.64580505    -0.25400
C1680       C  0.63274896  0.02763086  0.64531787     0.27300
H1681       H  0.58462951  0.97077918  0.67172003     0.13100
N1682       N  0.55416127  0.00754269  0.67565438    -0.82600
H1683       H  0.62841977  0.07127227  0.63913258     0.17900
N1684       N  0.66111983  0.03621848  0.63578261    -0.81200
H1685       H  0.53291600  0.98293497  0.67401053     0.33600
H1686       H  0.56455990  0.00790293  0.68575076     0.38100
H1687       H  0.66604877  0.05708608  0.62925364     0.33500
H1688       H  0.68306836  0.04429964  0.64210337     0.30200
H1689       H  0.66836190  0.00994697  0.69178169     0.33500
H1690       H  0.66239404  0.03303766  0.67924058     0.30200
H1691       H  0.70890990  0.96039904  0.63373087     0.38100
H1692       H  0.66812600  0.93959207  0.62791835     0.33600
C1693       C  0.74583042  0.90857380  0.61120841    -0.20200
C1694       C  0.76148750  0.90615209  0.59842419     0.36000
C1695       C  0.74340641  0.89809669  0.58541036    -0.26200
C1696       C  0.71020312  0.89324247  0.58472606     0.02500
C1697       C  0.69473068  0.89646410  0.59736827     0.27300
C1698       C  0.71254415  0.90371151  0.61047301    -0.25300
N1699       N  0.79573234  0.91186738  0.59852694    -0.82700
H1700       H  0.75536257  0.89537770  0.57576294     0.13100
C1701       C  0.69196275  0.88433697  0.57070425     0.02400
N1702       N  0.66098852  0.89227034  0.59685424    -0.81200
H1703       H  0.69994392  0.90473872  0.62021068     0.17900
C1704       C  0.65929373  0.85470181  0.56957308    -0.26100
C1705       C  0.64186166  0.84468626  0.55633719     0.35900
C1706       C  0.65816317  0.86404335  0.54380750    -0.20100
C1707       C  0.69055710  0.89417459  0.54509633    -0.25400
C1708       C  0.70740235  0.90469666  0.55840299     0.27300
H1709       H  0.64745724  0.83912809  0.57905519     0.13100
N1710       N  0.60774829  0.81507924  0.55564704    -0.82600
H1711       H  0.70319877  0.90943482  0.53563321     0.17900
N1712       N  0.74023803  0.93592987  0.55947405    -0.81200
H1713       H  0.59981699  0.80364151  0.56578105     0.33600
H1714       H  0.59104221  0.82374767  0.55281250     0.38100
H1715       H  0.74814666  0.94783345  0.54942414     0.33500
H1716       H  0.73710840  0.95288630  0.56610634     0.30200
H1717       H  0.65315865  0.89509366  0.60711150     0.33500
H1718       H  0.66257902  0.91217474  0.59054129     0.30200
H1719       H  0.79482624  0.88968451  0.59461263     0.38100
H1720       H  0.81070679  0.93204967  0.59145015     0.33600
C1721       C  0.08776881  0.90829990  0.71288662    -0.20200
C1722       C  0.05878615  0.91224137  0.71153744     0.36000
C1723       C  0.03577427  0.90353458  0.72319843    -0.26200
C1724       C  0.04154607  0.89129593  0.73612107     0.02500
C1725       C  0.07216956  0.89054418  0.73789609     0.27300
C1726       C  0.09489876  0.89885499  0.72622056    -0.25300
N1727       N  0.05108402  0.92170806  0.69788732    -0.82700
H1728       H  0.01215315  0.90394117  0.72187413     0.13100
C1729       C  0.01333754  0.87348070  0.74676519     0.02400
N1730       N  0.07858523  0.87866852  0.75122872    -0.81200
H1731       H  0.11673509  0.89518216  0.72714989     0.17900
C1732       C  0.99390112  0.83746221  0.74622609    -0.26100
C1733       C  0.97285298  0.81835012  0.75780615     0.35900
C1734       C  0.97098170  0.83564805  0.77014680    -0.20100
C1735       C  0.98742153  0.87177664  0.76999240    -0.25400
C1736       C  0.00900600  0.89095369  0.75842760     0.27300
H1737       H  0.99705728  0.82418688  0.73714417     0.13100
N1738       N  0.95514370  0.78137324  0.75753595    -0.82600
H1739       H  0.98619642  0.88511870  0.77948497     0.17900
N1740       N  0.02782235  0.92792096  0.75881225    -0.81200
H1741       H  0.92877331  0.77238926  0.75796604     0.33600
H1742       H  0.95962948  0.77260172  0.74780858     0.38100
H1743       H  0.02170547  0.93678540  0.76811614     0.33500
H1744       H  0.05398866  0.93610661  0.75948847     0.30200
H1745       H  0.10180531  0.87885461  0.75071777     0.33500
H1746       H  0.08155033  0.89626891  0.75924557     0.30200
H1747       H  0.07069979  0.94682079  0.69563378     0.38100
H1748       H  0.02824589  0.92225606  0.69848999     0.33600
C1749       C  0.25598376  0.93944786  0.66238361    -0.20200
C1750       C  0.27133755  0.95970756  0.67469055     0.36000
C1751       C  0.30720873  0.97655743  0.67641353    -0.26200
C1752       C  0.32805842  0.97398377  0.66582547     0.02500
C1753       C  0.31243548  0.95181313  0.65395005     0.27300
C1754       C  0.27644734  0.93456222  0.65241066    -0.25300
N1755       N  0.25072595  0.96479116  0.68500696    -0.82700
H1756       H  0.31902331  0.99351070  0.68555778     0.13100
C1757       C  0.36580532  0.99858625  0.66597389     0.02400
N1758       N  0.33329576  0.94870545  0.64302391    -0.81200
H1759       H  0.26458170  0.91947420  0.64280045     0.17900
C1760       C  0.38894194  0.98652139  0.66654137    -0.26100
C1761       C  0.42465065  0.00913230  0.66479650     0.35900
C1762       C  0.43744962  0.04469962  0.66267699    -0.20100
C1763       C  0.41412080  0.05664608  0.66265758    -0.25400
C1764       C  0.37858848  0.03404706  0.66409493     0.27300
H1765       H  0.37893161  0.95919200  0.66784867     0.13100
N1766       N  0.44758445  0.99583905  0.66467359    -0.82600
H1767       H  0.42352384  0.08379116  0.66110618     0.17900
N1768       N  0.35526909  0.04683810  0.66314434    -0.81200
H1769       H  0.43409366  0.96936014  0.66665938     0.33600
H1770       H  0.45761179  0.99903956  0.65426255     0.38100
H1771       H  0.36876390  0.07355327  0.66181988     0.33500
H1772       H  0.34045760  0.03642699  0.65385060     0.30200
H1773       H  0.31783697  0.93135431  0.63504060     0.33500
H1774       H  0.34763350  0.97266129  0.63801734     0.30200
H1775       H  0.25973948  0.99116489  0.68565784     0.38100
H1776       H  0.25438611  0.95670905  0.69504495     0.33600
C1777       C  0.11110378  0.77531887  0.66033619    -0.20200
C1778       C  0.09316412  0.75044817  0.67109956     0.36000
C1779       C  0.08390321  0.71612298  0.66866337    -0.26200
C1780       C  0.09215566  0.70601286  0.65570556     0.02500
C1781       C  0.11145312  0.73103680  0.64518297     0.27300
C1782       C  0.12107285  0.76566497  0.64765710    -0.25300
N1783       N  0.08396889  0.76012553  0.68439801    -0.82700
H1784       H  0.06903941  0.69682801  0.67671860     0.13100
C1785       C  0.07718196  0.66860019  0.65305038     0.02400
N1786       N  0.12044443  0.72100232  0.63194904    -0.81200
H1787       H  0.13497317  0.78481498  0.63942790     0.17900
C1788       C  0.05080303  0.65231836  0.64283247    -0.26100
C1789       C  0.02938492  0.61628935  0.64268860     0.35900
C1790       C  0.03510744  0.59631516  0.65269454    -0.20100
C1791       C  0.06356527  0.61233971  0.66192856    -0.25400
C1792       C  0.08448361  0.64842003  0.66232329     0.27300
H1793       H  0.04513555  0.66787337  0.63577171     0.13100
N1794       N  0.00038195  0.59997073  0.63312878    -0.82600
H1795       H  0.06755744  0.59691336  0.66974272     0.17900
N1796       N  0.11170721  0.66481996  0.67271267    -0.81200
H1797       H  0.99938040  0.61825520  0.62658389     0.33600
H1798       H  0.00423351  0.58381380  0.62628333     0.38100
H1799       H  0.11335635  0.64642301  0.67892306     0.33500
H1800       H  0.13484026  0.67831249  0.66703027     0.30200
H1801       H  0.13448685  0.74240491  0.62531022     0.33500
H1802       H  0.13676627  0.71169204  0.63450780     0.30200
H1803       H  0.10678914  0.77715336  0.68974487     0.38100
H1804       H  0.07055696  0.73875912  0.69111715     0.33600
C1805       C  0.02793937  0.87628929  0.66480650    -0.20200
C1806       C  0.02546584  0.89827935  0.65470421     0.36000
C1807       C  0.99669162  0.90251960  0.65501729    -0.26200
C1808       C  0.97079591  0.88583996  0.66541884     0.02500
C1809       C  0.97303479  0.86349685  0.67536465     0.27300
C1810       C  0.00116861  0.85836412  0.67474017    -0.25300
N1811       N  0.05252510  0.91674989  0.64439980    -0.82700
H1812       H  0.99468809  0.91935384  0.64728520     0.13100
C1813       C  0.94142004  0.89192060  0.66583583     0.02400
N1814       N  0.94750364  0.84733007  0.68646655    -0.81200
H1815       H  0.00349380  0.84232456  0.68279088     0.17900
C1816       C  0.90791108  0.86380532  0.66442966    -0.26100
C1817       C  0.87928055  0.86816759  0.66477006     0.35900
C1818       C  0.88429636  0.90164305  0.66623281    -0.20100
C1819       C  0.91789133  0.92973079  0.66797360    -0.25400
C1820       C  0.94650282  0.92520050  0.66782054     0.27300
H1821       H  0.90411849  0.83826271  0.66302060     0.13100
N1822       N  0.84517590  0.83865791  0.66370183    -0.82600
H1823       H  0.92193092  0.95542187  0.66914051     0.17900
N1824       N  0.98066836  0.95420475  0.66964935    -0.81200
H1825       H  0.84607559  0.81608946  0.66251991     0.33600
H1826       H  0.83266561  0.83647168  0.67346760     0.38100
H1827       H  0.97999764  0.97687690  0.67091483     0.33500
H1828       H  0.99052019  0.95057177  0.67923172     0.30200
H1829       H  0.95300140  0.83186652  0.69297364     0.33500
H1830       H  0.94903553  0.86681290  0.69310071     0.30200
H1831       H  0.04691845  0.93204386  0.63783321     0.38100
H1832       H  0.05341522  0.89860231  0.63768330     0.33600
C1833       C  0.35310755  0.84012081  0.48811218    -0.20200
C1834       C  0.36133384  0.81500204  0.48389485     0.36000
C1835       C  0.39586074  0.82314066  0.48432602    -0.26200
C1836       C  0.42216360  0.85533094  0.48926912     0.02500
C1837       C  0.41400718  0.88022881  0.49358378     0.27300
C1838       C  0.37982166  0.87255045  0.49279875    -0.25300
N1839       N  0.33485297  0.78131920  0.47936188    -0.82700
H1840       H  0.40232174  0.80413231  0.48093346     0.13100
C1841       C  0.45816042  0.86263246  0.48985493     0.02400
N1842       N  0.44042040  0.91305633  0.49897463    -0.81200
H1843       H  0.37406553  0.89208382  0.49613436     0.17900
C1844       C  0.48397830  0.89076953  0.48222724    -0.26100
C1845       C  0.51790084  0.89724218  0.48175492     0.35900
C1846       C  0.52600532  0.87453451  0.48886452    -0.20100
C1847       C  0.50037876  0.84737482  0.49706960    -0.25400
C1848       C  0.46669027  0.84138022  0.49773086     0.27300
H1849       H  0.47736077  0.90719701  0.47626305     0.13100
N1850       N  0.54343503  0.92554819  0.47339161    -0.82600
H1851       H  0.50640335  0.83004338  0.50265328     0.17900
N1852       N  0.44092221  0.81345018  0.50617782    -0.81200
H1853       H  0.53263623  0.93829909  0.46815864     0.33600
H1854       H  0.56158199  0.94334894  0.48058620     0.38100
H1855       H  0.45127445  0.80007780  0.51123480     0.33500
H1856       H  0.43331975  0.82410859  0.51436517     0.30200
H1857       H  0.43020659  0.92857533  0.50165049     0.33500
H1858       H  0.44975788  0.90864775  0.50853364     0.30200
H1859       H  0.31951398  0.76894455  0.48834093     0.38100
H1860       H  0.34550990  0.76651218  0.47615554     0.33600
C1861       C  0.21004152  0.83912205  0.54192138    -0.20200
C1862       C  0.22900617  0.84099786  0.55437142     0.36000
C1863       C  0.21971935  0.84790379  0.56783332    -0.26200
C1864       C  0.19157521  0.85270076  0.56929622     0.02500
C1865       C  0.17151510  0.84927270  0.55707500     0.27300
C1866       C  0.18093470  0.84253897  0.54352493    -0.25300
N1867       N  0.25780093  0.83593386  0.55346956    -0.82700
H1868       H  0.23518378  0.85037661  0.57717224     0.13100
C1869       C  0.18478209  0.86332239  0.58351650     0.02400
N1870       N  0.14188823  0.85302667  0.55847116    -0.81200
H1871       H  0.16595876  0.84086787  0.53413456     0.17900
C1872       C  0.18556313  0.89467618  0.58460360    -0.26100
C1873       C  0.18063383  0.90662439  0.59786959     0.35900
C1874       C  0.17543191  0.88698966  0.61052184    -0.20100
C1875       C  0.17451076  0.85540109  0.60933258    -0.25400
C1876       C  0.17901427  0.84335915  0.59599390     0.27300
H1877       H  0.19027983  0.91006542  0.57500356     0.13100
N1878       N  0.18075161  0.93851862  0.59842396    -0.82600
H1879       H  0.17054242  0.84004624  0.61887335     0.17900
N1880       N  0.17776413  0.81094500  0.59506219    -0.81200
H1881       H  0.15587306  0.93266882  0.60114130     0.33600
H1882       H  0.18595179  0.95010601  0.58827629     0.38100
H1883       H  0.17348036  0.79948604  0.60521273     0.33500
H1884       H  0.15655375  0.79450722  0.58870709     0.30200
H1885       H  0.12998286  0.84992144  0.54848585     0.33500
H1886       H  0.12412831  0.83305873  0.56504246     0.30200
H1887       H  0.27946843  0.85804337  0.55741552     0.38100
H1888       H  0.25297335  0.81535902  0.56016814     0.33600
C1889       C  0.16693850  0.22968487  0.71631641    -0.20200
C1890       C  0.18340325  0.24622227  0.72926161     0.36000
C1891       C  0.18925433  0.22773083  0.73989143    -0.26200
C1892       C  0.17920177  0.19309716  0.73781270     0.02500
C1893       C  0.15974749  0.17554992  0.72555585     0.27300
C1894       C  0.15338122  0.19400379  0.71494703    -0.25300
N1895       N  0.19644302  0.28244331  0.73103238    -0.82700
H1896       H  0.20387490  0.24098351  0.74942327     0.13100
C1897       C  0.19386596  0.17794125  0.74762744     0.02400
N1898       N  0.14819777  0.13969639  0.72358170    -0.81200
H1899       H  0.14108916  0.18132219  0.70494445     0.17900
C1900       C  0.17580368  0.16024163  0.76001889    -0.26100
C1901       C  0.19271921  0.15408587  0.77136140     0.35900
C1902       C  0.22824253  0.16597737  0.77019116    -0.20100
C1903       C  0.24536224  0.18088392  0.75725440    -0.25400
C1904       C  0.22847490  0.18684528  0.74592488     0.27300
H1905       H  0.14926775  0.15359225  0.76128822     0.13100
N1906       N  0.17494973  0.13909923  0.78462270    -0.82600
H1907       H  0.27272371  0.19049071  0.75646847     0.17900
N1908       N  0.24701699  0.20443064  0.73313038    -0.81200
H1909       H  0.14931998  0.13293211  0.78396657     0.33600
H1910       H  0.17447434  0.11588664  0.78598672     0.38100
H1911       H  0.27246769  0.20999311  0.73367600     0.33500
H1912       H  0.23565365  0.18754314  0.72446330     0.30200
H1913       H  0.13417199  0.13061728  0.71402368     0.33500
H1914       H  0.16994222  0.13735919  0.72239630     0.30200
H1915       H  0.17534449  0.28605342  0.73110989     0.38100
H1916       H  0.20856919  0.29094707  0.74101694     0.33600
C1917       C  0.14136116  0.36448891  0.66319844    -0.20200
C1918       C  0.11073210  0.35429432  0.67091810     0.36000
C1919       C  0.09642588  0.37557077  0.67095453    -0.26200
C1920       C  0.11185108  0.40650549  0.66321588     0.02500
C1921       C  0.14404945  0.41819779  0.65656925     0.27300
C1922       C  0.15883179  0.39718128  0.65680591    -0.25300
N1923       N  0.09311120  0.32123045  0.67783806    -0.82700
H1924       H  0.07166181  0.36668047  0.67601383     0.13100
C1925       C  0.09024378  0.42144032  0.65944635     0.02400
N1926       N  0.16041838  0.45020693  0.64883648    -0.81200
H1927       H  0.18225253  0.40484253  0.65081774     0.17900
C1928       C  0.09301520  0.44974059  0.66695632    -0.26100
C1929       C  0.07021675  0.46183845  0.66411976     0.35900
C1930       C  0.04442381  0.44532073  0.65342779    -0.20100
C1931       C  0.04273429  0.41762152  0.64572828    -0.25400
C1932       C  0.06521792  0.40559166  0.64861469     0.27300
H1933       H  0.11232239  0.46172916  0.67529899     0.13100
N1934       N  0.07271727  0.49008860  0.67230099    -0.82600
H1935       H  0.02347990  0.40491328  0.63741923     0.17900
N1936       N  0.06232882  0.37670697  0.64077338    -0.81200
H1937       H  0.09357368  0.49980878  0.67938833     0.33600
H1938       H  0.05065942  0.48040077  0.67870322     0.38100
H1939       H  0.04219128  0.36745721  0.63333614     0.33500
H1940       H  0.08493257  0.38545617  0.63481454     0.30200
H1941       H  0.18393729  0.45510663  0.64458063     0.33500
H1942       H  0.14480654  0.44761037  0.64005845     0.30200
H1943       H  0.10912340  0.32146434  0.68600791     0.38100
H1944       H  0.07062273  0.31727830  0.68283804     0.33600
C1945       C  0.17307040  0.03000942  0.66584809    -0.20200
C1946       C  0.14605929  0.03680737  0.66811599     0.36000
C1947       C  0.15354825  0.07108808  0.66841061    -0.26200
C1948       C  0.18727246  0.09865947  0.66655908     0.02500
C1949       C  0.21429135  0.09201653  0.66467715     0.27300
C1950       C  0.20694038  0.05786607  0.66438736    -0.25300
N1951       N  0.11108704  0.00913724  0.66968625    -0.82700
H1952       H  0.13295504  0.07641587  0.67009825     0.13100
C1953       C  0.19389069  0.13438378  0.66667769     0.02400
N1954       N  0.24901197  0.11998024  0.66279327    -0.81200
H1955       H  0.22787609  0.05303831  0.66276477     0.17900
C1956       C  0.21675354  0.15789692  0.67683307    -0.26100
C1957       C  0.22232672  0.19141293  0.67782213     0.35900
C1958       C  0.20415309  0.20142142  0.66854345    -0.20100
C1959       C  0.18209239  0.17810663  0.65807824    -0.25400
C1960       C  0.17697078  0.14480111  0.65698094     0.27300
H1961       H  0.22957536  0.14969506  0.68429992     0.13100
N1962       N  0.24460453  0.21438475  0.68882077    -0.82600
H1963       H  0.16799580  0.18560254  0.65099329     0.17900
N1964       N  0.15422318  0.12129159  0.64623038    -0.81200
H1965       H  0.25394201  0.20210633  0.69535065     0.33600
H1966       H  0.26605448  0.23439058  0.68366976     0.38100
H1967       H  0.14352751  0.13282873  0.64004455     0.33500
H1968       H  0.16900409  0.11586146  0.63922785     0.30200
H1969       H  0.26592432  0.11074215  0.66162041     0.33500
H1970       H  0.24995141  0.13236377  0.65315840     0.30200
H1971       H  0.10922252  0.99752654  0.67963276     0.38100
H1972       H  0.09428975  0.01864351  0.67021610     0.33600
C1973       C  0.04967621  0.18876668  0.66579170    -0.20200
C1974       C  0.04254978  0.15447007  0.66691752     0.36000
C1975       C  0.00817175  0.12716001  0.66649472    -0.26200
C1976       C  0.98079426  0.13327523  0.66499101     0.02500
C1977       C  0.98785573  0.16736924  0.66383307     0.27300
C1978       C  0.02206995  0.19464301  0.66429880    -0.25300
N1979       N  0.07003430  0.14728930  0.66806627    -0.82700
H1980       H  0.00262471  0.10091180  0.66752862     0.13100
C1981       C  0.94478865  0.10384606  0.66523444     0.02400
N1982       N  0.96021440  0.17412717  0.66203784    -0.81200
H1983       H  0.02716816  0.22075073  0.66337190     0.17900
C1984       C  0.92190481  0.10337698  0.67560664    -0.26100
C1985       C  0.88841269  0.07500327  0.67695869     0.35900
C1986       C  0.87761759  0.04642308  0.66773424    -0.20100
C1987       C  0.90014721  0.04730677  0.65707402    -0.25400
C1988       C  0.93350125  0.07591052  0.65561319     0.27300
H1989       H  0.93070534  0.12471915  0.68306436     0.13100
N1990       N  0.86607554  0.07438991  0.68816004    -0.82600
H1991       H  0.89187992  0.02523952  0.65006325     0.17900
N1992       N  0.95608001  0.07657475  0.64452547    -0.81200
H1993       H  0.87779342  0.09763821  0.69384478     0.33600
H1994       H  0.86246398  0.05533792  0.69552482     0.38100
H1995       H  0.94389229  0.05397547  0.63840753     0.33500
H1996       H  0.96114587  0.09675619  0.63754097     0.30200
H1997       H  0.96969457  0.20058733  0.66142180     0.33500
H1998       H  0.94844244  0.16360334  0.65215675     0.30200
H1999       H  0.08101605  0.15539616  0.67826644     0.38100
H2000       H  0.06041548  0.12077275  0.66767953     0.33600
C2001       C  0.48718166  0.48087552  0.65800676    -0.20200
C2002       C  0.47185396  0.49718706  0.66528430     0.36000
C2003       C  0.43582885  0.48239044  0.66478680    -0.26200
C2004       C  0.41507709  0.45198549  0.65700678     0.02500
C2005       C  0.43077418  0.43776434  0.64856348     0.27300
C2006       C  0.46666829  0.45235463  0.64916144    -0.25300
N2007       N  0.49245435  0.52673584  0.67420434    -0.82700
H2008       H  0.42365488  0.49329097  0.67121637     0.13100
C2009       C  0.37736444  0.43191223  0.65972019     0.02400
N2010       N  0.41000972  0.40724161  0.64016587    -0.81200
H2011       H  0.47843480  0.43985436  0.64355668     0.17900
C2012       C  0.35399430  0.42652766  0.64864654    -0.26100
C2013       C  0.31836526  0.40352890  0.65045652     0.35900
C2014       C  0.30616348  0.38494386  0.66344592    -0.20100
C2015       C  0.32950220  0.39158836  0.67468981    -0.25400
C2016       C  0.36485962  0.41492773  0.67300221     0.27300
H2017       H  0.36371707  0.43960922  0.63846009     0.13100
N2018       N  0.29488296  0.39771305  0.63892934    -0.82600
H2019       H  0.32017692  0.37758660  0.68472024     0.17900
N2020       N  0.38833240  0.42046485  0.68454895    -0.81200
H2021       H  0.30815503  0.41219199  0.62989033     0.33600
H2022       H  0.27921399  0.40717883  0.64236485     0.38100
H2023       H  0.37500406  0.40631647  0.69364500     0.33500
H2024       H  0.40404822  0.41093417  0.68123549     0.30200
H2025       H  0.42552295  0.40020961  0.63449784     0.33500
H2026       H  0.39521336  0.38711795  0.64729345     0.30200
H2027       H  0.50909932  0.54687660  0.66742843     0.38100
H2028       H  0.47705577  0.53473180  0.67931768     0.33600
C2029       C  0.22260155  0.55005242  0.48590286    -0.20200
C2030       C  0.18926530  0.54493788  0.48832478     0.36000
C2031       C  0.18394237  0.57296968  0.48722911    -0.26200
C2032       C  0.21081597  0.60579515  0.48346545     0.02500
C2033       C  0.24339400  0.61048089  0.48008266     0.27300
C2034       C  0.24900189  0.58268657  0.48140638    -0.25300
N2035       N  0.16094497  0.51149246  0.49201629    -0.82700
H2036       H  0.15885618  0.56940096  0.48966145     0.13100
C2037       C  0.20520979  0.63552200  0.48398862     0.02400
N2038       N  0.27078636  0.64365018  0.47551749    -0.81200
H2039       H  0.27443932  0.58686539  0.47927155     0.17900
C2040       C  0.22545587  0.66289341  0.49333916    -0.26100
C2041       C  0.22237990  0.69230372  0.49386758     0.35900
C2042       C  0.19833506  0.69445725  0.48484333    -0.20100
C2043       C  0.17677191  0.66617852  0.47601938    -0.25400
C2044       C  0.18017842  0.63685865  0.47540428     0.27300
H2045       H  0.24412842  0.66143106  0.50015003     0.13100
N2046       N  0.24409463  0.72027826  0.50334057    -0.82600
H2047       H  0.15864292  0.66778304  0.46891261     0.17900
N2048       N  0.15924081  0.60904720  0.46573023    -0.81200
H2049       H  0.26066727  0.71483182  0.50906970     0.33600
H2050       H  0.22821545  0.72252686  0.51092543     0.38100
H2051       H  0.14214775  0.61403288  0.46015896     0.33500
H2052       H  0.17553718  0.60792846  0.45801619     0.30200
H2053       H  0.29319044  0.64291464  0.47351267     0.33500
H2054       H  0.26346556  0.64934020  0.46571093     0.30200
H2055       H  0.15613333  0.49541138  0.48312469     0.38100
H2056       H  0.13854054  0.51241893  0.49372414     0.33600
C2057       C  0.52038867  0.72253121  0.48734478    -0.20200
C2058       C  0.51976639  0.69548354  0.49542208     0.36000
C2059       C  0.49069988  0.66229447  0.49479645    -0.26200
C2060       C  0.46264118  0.65511868  0.48609750     0.02500
C2061       C  0.46327884  0.68146350  0.47777735     0.27300
C2062       C  0.49200288  0.71500175  0.47857718    -0.25300
N2063       N  0.54815038  0.70167323  0.50449325    -0.82700
H2064       H  0.48985158  0.64175058  0.50114044     0.13100
C2065       C  0.43240986  0.61986753  0.48608329     0.02400
N2066       N  0.43463161  0.67401652  0.46864491    -0.81200
H2067       H  0.49218520  0.73530063  0.47230828     0.17900
C2068       C  0.40324605  0.61310773  0.49401133    -0.26100
C2069       C  0.37368795  0.58009478  0.49410093     0.35900
C2070       C  0.37321002  0.55337479  0.48585215    -0.20100
C2071       C  0.40315735  0.56018235  0.47835632    -0.25400
C2072       C  0.43255881  0.59299535  0.47840306     0.27300
H2073       H  0.40356218  0.63377543  0.50010122     0.13100
N2074       N  0.34414837  0.57381975  0.50240408    -0.82600
H2075       H  0.40335659  0.54029614  0.47187565     0.17900
N2076       N  0.46186858  0.59866234  0.47018887    -0.81200
H2077       H  0.34863803  0.59624420  0.50766026     0.33600
H2078       H  0.34056206  0.55610710  0.51044080     0.38100
H2079       H  0.48281168  0.60716756  0.47715438     0.33500
H2080       H  0.46756456  0.61806731  0.46267597     0.30200
H2081       H  0.43900476  0.69622918  0.46327914     0.33500
H2082       H  0.43303046  0.65677814  0.46071471     0.30200
H2083       H  0.56843741  0.70575350  0.49774303     0.38100
H2084       H  0.54213053  0.67982324  0.51056147     0.33600
C2085       C  0.22857133  0.40659639  0.54166274    -0.20200
C2086       C  0.23906895  0.38247081  0.54476015     0.36000
C2087       C  0.23360646  0.36798742  0.55866136    -0.26200
C2088       C  0.21728576  0.37635194  0.56944349     0.02500
C2089       C  0.20593025  0.39944906  0.56629424     0.27300
C2090       C  0.21195733  0.41449152  0.55258651    -0.25300
N2091       N  0.25507582  0.37254310  0.53389070    -0.82700
H2092       H  0.24197569  0.34992792  0.56110799     0.13100
C2093       C  0.21163364  0.36067109  0.58401634     0.02400
N2094       N  0.18794956  0.40728995  0.57704163    -0.81200
H2095       H  0.20324256  0.43239455  0.55045368     0.17900
C2096       C  0.22610985  0.38221987  0.59604083    -0.26100
C2097       C  0.21802369  0.36910838  0.61013945     0.35900
C2098       C  0.19550672  0.33349913  0.61226995    -0.20100
C2099       C  0.18202736  0.31177622  0.60020105    -0.25400
C2100       C  0.18980526  0.32498377  0.58610207     0.27300
H2101       H  0.24283394  0.40963384  0.59439184     0.13100
N2102       N  0.23129959  0.39205824  0.62225524    -0.82600
H2103       H  0.16478345  0.28442724  0.60179604     0.17900
N2104       N  0.17487607  0.30246356  0.57392460    -0.81200
H2105       H  0.24758323  0.41738190  0.61884023     0.33600
H2106       H  0.21051055  0.39161431  0.62743965     0.38100
H2107       H  0.15957303  0.27694588  0.57729946     0.33500
H2108       H  0.15847761  0.30908524  0.56878487     0.30200
H2109       H  0.18140640  0.42486748  0.57307800     0.33500
H2110       H  0.16481259  0.38460035  0.57924265     0.30200
H2111       H  0.23643608  0.35837869  0.52609844     0.38100
H2112       H  0.26254462  0.35591568  0.53814988     0.33600
C2113       C  0.56441232  0.42338210  0.10539793    -0.20200
C2114       C  0.57618357  0.39976609  0.10619313     0.36000
C2115       C  0.57008951  0.37719641  0.09455923    -0.26200
C2116       C  0.55247989  0.37793197  0.08228379     0.02500
C2117       C  0.54409022  0.40389980  0.08089340     0.27300
C2118       C  0.54994088  0.42623675  0.09250153    -0.25300
N2119       N  0.59168305  0.39683748  0.11921028    -0.82700
H2120       H  0.57664485  0.35729740  0.09552011     0.13100
C2121       C  0.53740179  0.34847266  0.07208876     0.02400
N2122       N  0.52735092  0.40574976  0.06805789    -0.81200
H2123       H  0.54065881  0.44411573  0.09192820     0.17900
C2124       C  0.50213658  0.32446689  0.07328809    -0.26100
C2125       C  0.48432044  0.30092916  0.06217066     0.35900
C2126       C  0.50218368  0.30126285  0.04965761    -0.20100
C2127       C  0.53817346  0.32256395  0.04918501    -0.25400
C2128       C  0.55600334  0.34655450  0.06028300     0.27300
H2129       H  0.48805201  0.32575762  0.08249710     0.13100
N2130       N  0.44767196  0.27838436  0.06300238    -0.82600
H2131       H  0.55184433  0.32307168  0.03949864     0.17900
N2132       N  0.59239943  0.37017495  0.05922266    -0.81200
H2133       H  0.43823235  0.28168305  0.07279287     0.33600
H2134       H  0.44277982  0.25312133  0.06289792     0.38100
H2135       H  0.60223137  0.36531894  0.04989025     0.33500
H2136       H  0.59624676  0.39494133  0.05814079     0.30200
H2137       H  0.52227033  0.42585696  0.06880963     0.33500
H2138       H  0.54459757  0.41181017  0.05951215     0.30200
H2139       H  0.57281799  0.38725714  0.12722063     0.38100
H2140       H  0.59934498  0.37868594  0.11793957     0.33600
C2141       C  0.41929167  0.57702683  0.37982706    -0.20200
C2142       C  0.39353999  0.58615497  0.37892154     0.36000
C2143       C  0.37178258  0.58017813  0.39077554    -0.26200
C2144       C  0.37535603  0.56569066  0.40350084     0.02500
C2145       C  0.40260051  0.55913853  0.40480105     0.27300
C2146       C  0.42424022  0.56481139  0.39294086    -0.25300
N2147       N  0.38688546  0.59884520  0.36586111    -0.82700
H2148       H  0.35076280  0.58509838  0.38976445     0.13100
C2149       C  0.34784643  0.55239628  0.41459501     0.02400
N2150       N  0.40639919  0.54415497  0.41780203    -0.81200
H2151       H  0.44332939  0.55708147  0.39355493     0.17900
C2152       C  0.32060445  0.51834323  0.41306705    -0.26100
C2153       C  0.29913664  0.50046173  0.42477000     0.35900
C2154       C  0.30485030  0.51709786  0.43817108    -0.20100
C2155       C  0.32950696  0.55230483  0.43924779    -0.25400
C2156       C  0.35119538  0.57022492  0.42760964     0.27300
H2157       H  0.31781872  0.50485272  0.40303371     0.13100
N2158       N  0.27304367  0.46479803  0.42342477    -0.82600
H2159       H  0.33418472  0.56515042  0.44958454     0.17900
N2160       N  0.37762730  0.60554866  0.42971472    -0.81200
H2161       H  0.27233057  0.45616660  0.41290377     0.33600
H2162       H  0.24930184  0.46291860  0.42527197     0.38100
H2163       H  0.36544576  0.61949490  0.43193296     0.33500
H2164       H  0.39184472  0.61609698  0.42031605     0.30200
H2165       H  0.42694990  0.53979680  0.41688361     0.33500
H2166       H  0.41279984  0.56217781  0.42606347     0.30200
H2167       H  0.40481175  0.60282672  0.35788250     0.38100
H2168       H  0.39025050  0.62307177  0.36811977     0.33600
C2169       C  0.53306571  0.49633993  0.20946687    -0.20200
C2170       C  0.54784859  0.49374116  0.22249482     0.36000
C2171       C  0.53744341  0.50109409  0.23565292    -0.26200
C2172       C  0.51236772  0.51060409  0.23614402     0.02500
C2173       C  0.49632650  0.51154087  0.22329379     0.27300
C2174       C  0.50678581  0.50438396  0.21009770    -0.25300
N2175       N  0.57349853  0.48386595  0.22235206    -0.82700
H2176       H  0.54957922  0.50026528  0.24557883     0.13100
C2177       C  0.50518373  0.52203469  0.25006198     0.02400
N2178       N  0.46988679  0.52032276  0.22370650    -0.81200
H2179       H  0.49509723  0.50622001  0.20021898     0.17900
C2180       C  0.51394639  0.55641494  0.25156337    -0.26100
C2181       C  0.51089621  0.56957249  0.26486392     0.35900
C2182       C  0.49774939  0.54741558  0.27700120    -0.20100
C2183       C  0.48821104  0.51261440  0.27527326    -0.25400
C2184       C  0.49195266  0.49981096  0.26198213     0.27300
H2185       H  0.52453105  0.57345718  0.24238103     0.13100
N2186       N  0.52198037  0.60552229  0.26603307    -0.82600
H2187       H  0.47808943  0.49524829  0.28436098     0.17900
N2188       N  0.48257219  0.46437461  0.26054065    -0.81200
H2189       H  0.52907122  0.61748793  0.25596739     0.33600
H2190       H  0.54430539  0.61709840  0.27230705     0.38100
H2191       H  0.47346498  0.45145068  0.27032772     0.33500
H2192       H  0.46211407  0.45275215  0.25326185     0.30200
H2193       H  0.46076852  0.52003916  0.21333669     0.33500
H2194       H  0.44918221  0.50110034  0.22952037     0.30200
H2195       H  0.56173356  0.45854256  0.21856673     0.38100
H2196       H  0.58199481  0.48363738  0.23279468     0.33600
C2197       C  0.88359404  0.49349103  0.10282887    -0.20200
C2198       C  0.89944060  0.50812418  0.08959136     0.36000
C2199       C  0.88023462  0.51219644  0.07872908    -0.26200
C2200       C  0.84572726  0.50246269  0.08099521     0.02500
C2201       C  0.82899346  0.48503797  0.09372796     0.27300
C2202       C  0.84809288  0.48022494  0.10449419    -0.25300
N2203       N  0.93556830  0.52102087  0.08768194    -0.82700
H2204       H  0.89286427  0.52537801  0.06885745     0.13100
C2205       C  0.83012409  0.51595826  0.07087615     0.02400
N2206       N  0.79334077  0.47395754  0.09597198    -0.81200
H2207       H  0.83610990  0.46942377  0.11478335     0.17900
C2208       C  0.81394227  0.49752597  0.05832505    -0.26100
C2209       C  0.80844393  0.51394964  0.04660734     0.35900
C2210       C  0.81938231  0.54928168  0.04760191    -0.20100
C2211       C  0.83233719  0.56658557  0.06069337    -0.25400
C2212       C  0.83784814  0.55026522  0.07236375     0.27300
H2213       H  0.80825785  0.47123645  0.05723677     0.13100
N2214       N  0.79535370  0.49603108  0.03319648    -0.82600
H2215       H  0.84124927  0.59384080  0.06132922     0.17900
N2216       N  0.85428333  0.56929291  0.08524070    -0.81200
H2217       H  0.78963693  0.47056090  0.03406777     0.33600
H2218       H  0.77210299  0.49501019  0.03113701     0.38100
H2219       H  0.85939923  0.59457460  0.08444746     0.33500
H2220       H  0.83688102  0.55791930  0.09373279     0.30200
H2221       H  0.78494884  0.46146155  0.10588883     0.33500
H2222       H  0.79113784  0.49587972  0.09655998     0.30200
H2223       H  0.93927698  0.50000184  0.08822778     0.38100
H2224       H  0.94348771  0.53161668  0.07741058     0.33600
C2225       C  0.85002522  0.52490168  0.15064713    -0.20200
C2226       C  0.82377277  0.49873513  0.15917760     0.36000
C2227       C  0.79101775  0.49525177  0.15959086    -0.26200
C2228       C  0.78370933  0.51702975  0.15156819     0.02500
C2229       C  0.80987400  0.54338442  0.14318156     0.27300
C2230       C  0.84286897  0.54733722  0.14295257    -0.25300
N2231       N  0.83032325  0.47554153  0.16726361    -0.82700
H2232       H  0.77091621  0.47526293  0.16613523     0.13100
C2233       C  0.74850952  0.51193546  0.15214862     0.02400
N2234       N  0.80249160  0.56529047  0.13458415    -0.81200
H2235       H  0.86255932  0.56689152  0.13612148     0.17900
C2236       C  0.74390699  0.53808653  0.15779617    -0.26100
C2237       C  0.71090517  0.53365815  0.15936298     0.35900
C2238       C  0.68156834  0.50230155  0.15488649    -0.20100
C2239       C  0.68654526  0.47644855  0.14891603    -0.25400
C2240       C  0.71961514  0.48092402  0.14753167     0.27300
H2241       H  0.76623762  0.56180826  0.16137733     0.13100
N2242       N  0.70740443  0.56095222  0.16555347    -0.82600
H2243       H  0.66451849  0.45240255  0.14542177     0.17900
N2244       N  0.72403090  0.45410254  0.14145211    -0.81200
H2245       H  0.73151183  0.58298118  0.16712755     0.33600
H2246       H  0.69676401  0.55295168  0.17581643     0.38100
H2247       H  0.70025037  0.43283989  0.13864502     0.33500
H2248       H  0.73798178  0.46351870  0.13189038     0.30200
H2249       H  0.82442777  0.58325014  0.12896925     0.33500
H2250       H  0.78436579  0.54984323  0.12683059     0.30200
H2251       H  0.84881334  0.49004435  0.17505390     0.38100
H2252       H  0.80824864  0.45757775  0.17280287     0.33600
C2253       C  0.17724078  0.65267614  0.37712809    -0.20200
C2254       C  0.21233051  0.67857315  0.37693857     0.36000
C2255       C  0.22754371  0.69813914  0.38945894    -0.26200
C2256       C  0.20817616  0.69241275  0.40204045     0.02500
C2257       C  0.17352958  0.66541694  0.40242464     0.27300
C2258       C  0.15842253  0.64578096  0.38993968    -0.25300
N2259       N  0.23138687  0.68696857  0.36367706    -0.82700
H2260       H  0.25388856  0.71936726  0.38914464     0.13100
C2261       C  0.22189353  0.71847725  0.41370893     0.02400
N2262       N  0.15308316  0.65999774  0.41511451    -0.81200
H2263       H  0.13124184  0.62660026  0.38990080     0.17900
C2264       C  0.21727621  0.74682916  0.41248689    -0.26100
C2265       C  0.22293043  0.76848096  0.42428999     0.35900
C2266       C  0.23388189  0.76211630  0.43747030    -0.20100
C2267       C  0.24181110  0.73583105  0.43829498    -0.25400
C2268       C  0.23570799  0.71368961  0.42650743     0.27300
H2269       H  0.20710890  0.75085254  0.40259489     0.13100
N2270       N  0.21577826  0.79585891  0.42313088    -0.82600
H2271       H  0.24980379  0.73064019  0.44852035     0.17900
N2272       N  0.24256450  0.68597375  0.42761771    -0.81200
H2273       H  0.23114531  0.81227602  0.41489396     0.33600
H2274       H  0.19005266  0.78525060  0.42009260     0.38100
H2275       H  0.25290847  0.68625802  0.43771718     0.33500
H2276       H  0.21917887  0.66276551  0.42694395     0.30200
H2277       H  0.12775002  0.64012845  0.41343414     0.33500
H2278       H  0.16291232  0.65171547  0.42333077     0.30200
H2279       H  0.23337693  0.66570931  0.36069003     0.38100
H2280       H  0.25648512  0.70747353  0.36519096     0.33600
C2281       C  0.98412633  0.52396718  0.20704601    -0.20200
C2282       C  0.96737854  0.50492151  0.21959055     0.36000
C2283       C  0.98462381  0.51469880  0.23286517    -0.26200
C2284       C  0.01775249  0.54356491  0.23399291     0.02500
C2285       C  0.03360205  0.56390014  0.22173331     0.27300
C2286       C  0.01674683  0.55381454  0.20837510    -0.25300
N2287       N  0.93303982  0.47568806  0.21884565    -0.82700
H2288       H  0.97239842  0.49939597  0.24237277     0.13100
C2289       C  0.03596960  0.55139401  0.24799447     0.02400
N2290       N  0.06690046  0.59450418  0.22290229    -0.81200
H2291       H  0.02964938  0.56886975  0.19889910     0.17900
C2292       C  0.06702897  0.55154745  0.24889334    -0.26100
C2293       C  0.08459982  0.55763758  0.26203910     0.35900
C2294       C  0.07033466  0.56304872  0.27467465    -0.20100
C2295       C  0.03931420  0.56321402  0.27363348    -0.25400
C2296       C  0.02212430  0.55761558  0.26044247     0.27300
H2297       H  0.07749695  0.54668156  0.23926596     0.13100
N2298       N  0.11685131  0.55850290  0.26250850    -0.82600
H2299       H  0.02809423  0.56735252  0.28319044     0.17900
N2300       N  0.99063496  0.55818990  0.25962000    -0.81200
H2301       H  0.12319115  0.55328265  0.25235525     0.33600
H2302       H  0.13592300  0.58365996  0.26510176     0.38100
H2303       H  0.98378395  0.56293732  0.26975510     0.33500
H2304       H  0.99518806  0.57889158  0.25306225     0.30200
H2305       H  0.07504962  0.60655001  0.21288935     0.33500
H2306       H  0.06434257  0.61170025  0.22961349     0.30200
H2307       H  0.91673834  0.48471838  0.21583292     0.38100
H2308       H  0.92474743  0.46442165  0.22898887     0.33600
C2309       C  0.36001517  0.54440064  0.33022980    -0.20200
C2310       C  0.36085199  0.57224836  0.32285253     0.36000
C2311       C  0.33119353  0.57500143  0.32249854    -0.26200
C2312       C  0.30075242  0.55054142  0.32930699     0.02500
C2313       C  0.29961212  0.52215355  0.33622577     0.27300
C2314       C  0.32899668  0.51921273  0.33651345    -0.25300
N2315       N  0.39196449  0.59795386  0.31598789    -0.82700
H2316       H  0.33190488  0.59658713  0.31707689     0.13100
C2317       C  0.27064382  0.55541948  0.32936702     0.02400
N2318       N  0.26948535  0.49690219  0.34368866    -0.81200
H2319       H  0.32806321  0.49811407  0.34244999     0.17900
C2320       C  0.24158009  0.53311745  0.32128646    -0.26100
C2321       C  0.21219514  0.53628937  0.32121376     0.35900
C2322       C  0.21210696  0.56307832  0.32924757    -0.20100
C2323       C  0.24170576  0.58574844  0.33718252    -0.25400
C2324       C  0.27085720  0.58208498  0.33736737     0.27300
H2325       H  0.24184839  0.51299837  0.31500205     0.13100
N2326       N  0.18290981  0.51276149  0.31273006    -0.82600
H2327       H  0.24218571  0.60647506  0.34328075     0.17900
N2328       N  0.30075457  0.60539218  0.34559084    -0.81200
H2329       H  0.18840177  0.49666143  0.30661550     0.33600
H2330       H  0.16341210  0.49667814  0.31988110     0.38100
H2331       H  0.29693672  0.62376111  0.35078193     0.33500
H2332       H  0.30390942  0.59114916  0.35367466     0.30200
H2333       H  0.24931234  0.48477315  0.33632232     0.33500
H2334       H  0.26288997  0.50946255  0.35140636     0.30200
H2335       H  0.39751532  0.58587644  0.30767261     0.38100
H2336       H  0.38836671  0.61682355  0.31119408     0.33600
C2337       C  0.63779419  0.17705059  0.10128441    -0.20200
C2338       C  0.63561092  0.16049934  0.08813959     0.36000
C2339       C  0.65866901  0.17915506  0.07700927    -0.26200
C2340       C  0.68418236  0.21376215  0.07895185     0.02500
C2341       C  0.68432640  0.23119672  0.09156926     0.27300
C2342       C  0.66064830  0.21265371  0.10260640    -0.25300
N2343       N  0.61159097  0.12427645  0.08657623    -0.82700
H2344       H  0.65858490  0.16600842  0.06721364     0.13100
C2345       C  0.71362419  0.22859760  0.06885637     0.02400
N2346       N  0.70956244  0.26701674  0.09341830    -0.81200
H2347       H  0.66242948  0.22520780  0.11280024     0.17900
C2348       C  0.71239237  0.24486211  0.05624247    -0.26100
C2349       C  0.73543807  0.25094750  0.04485222     0.35900
C2350       C  0.75979959  0.24026409  0.04618267    -0.20100
C2351       C  0.76278920  0.22674786  0.05930911    -0.25400
C2352       C  0.73997828  0.22091322  0.07069817     0.27300
H2353       H  0.69194105  0.25050845  0.05489268     0.13100
N2354       N  0.73183858  0.26449784  0.03140581    -0.82600
H2355       H  0.78104374  0.21800059  0.06021561     0.17900
N2356       N  0.74149959  0.20445856  0.08368843    -0.81200
H2357       H  0.71169526  0.26955249  0.03193832     0.33600
H2358       H  0.75435156  0.28816856  0.02982747     0.38100
H2359       H  0.76170174  0.19949300  0.08318876     0.33500
H2360       H  0.74718593  0.22180104  0.09216848     0.30200
H2361       H  0.70608331  0.27594611  0.10331035     0.33500
H2362       H  0.73379575  0.26937151  0.09381081     0.30200
H2363       H  0.58685234  0.12062323  0.08735697     0.38100
H2364       H  0.61355055  0.11584243  0.07631470     0.33600
C2365       C  0.85047389  0.37581029  0.15047246    -0.20200
C2366       C  0.85352009  0.34784944  0.15559387     0.36000
C2367       C  0.82446175  0.31453788  0.15569260    -0.26200
C2368       C  0.79281152  0.30816204  0.15030983     0.02500
C2369       C  0.79027089  0.33541098  0.14426725     0.27300
C2370       C  0.81893771  0.36894547  0.14456508    -0.25300
N2371       N  0.88584782  0.35318949  0.16081146    -0.82700
H2372       H  0.82639052  0.29340598  0.16013328     0.13100
C2373       C  0.76230849  0.27293489  0.15118059     0.02400
N2374       N  0.75847115  0.32887618  0.13791931    -0.81200
H2375       H  0.81636036  0.38988063  0.14035745     0.17900
C2376       C  0.73280676  0.26796921  0.15839163    -0.26100
C2377       C  0.70228595  0.23578731  0.15835352     0.35900
C2378       C  0.70128105  0.20794113  0.15088907    -0.20100
C2379       C  0.73167168  0.21236870  0.14465515    -0.25400
C2380       C  0.76208430  0.24464584  0.14460148     0.27300
H2381       H  0.73343985  0.28957826  0.16380454     0.13100
N2382       N  0.67219250  0.23152239  0.16559670    -0.82600
H2383       H  0.73118134  0.19117720  0.13893970     0.17900
N2384       N  0.79224868  0.24912256  0.13735208    -0.81200
H2385       H  0.67718981  0.25459399  0.17039649     0.33600
H2386       H  0.66640688  0.21388501  0.17394077     0.38100
H2387       H  0.78784546  0.22573912  0.13311647     0.33500
H2388       H  0.79702469  0.26548031  0.12859607     0.30200
H2389       H  0.76079032  0.35164991  0.13398912     0.33500
H2390       H  0.75360621  0.31280296  0.12901904     0.30200
H2391       H  0.90269298  0.36078611  0.15203944     0.38100
H2392       H  0.88325962  0.33014900  0.16454457     0.33600
C2393       C  0.55602107  0.21516448  0.14953961    -0.20200
C2394       C  0.58201464  0.24891026  0.14564685     0.36000
C2395       C  0.57490132  0.27586430  0.14622518    -0.26200
C2396       C  0.54284553  0.27012504  0.15093534     0.02500
C2397       C  0.51696382  0.23667202  0.15476077     0.27300
C2398       C  0.52364238  0.20958807  0.15385897    -0.25300
N2399       N  0.61561601  0.25599476  0.14136658    -0.82700
H2400       H  0.59465142  0.30168281  0.14321281     0.13100
C2401       C  0.53678453  0.29944975  0.15194596     0.02400
N2402       N  0.48419918  0.23048214  0.15984463    -0.81200
H2403       H  0.50346458  0.18400526  0.15689305     0.17900
C2404       C  0.51049911  0.29896872  0.14374613    -0.26100
C2405       C  0.50553987  0.32730375  0.14361925     0.35900
C2406       C  0.52700806  0.35654719  0.15215483    -0.20100
C2407       C  0.55224817  0.35615063  0.16086684    -0.25400
C2408       C  0.55737490  0.32797881  0.16083645     0.27300
H2409       H  0.49477823  0.27695300  0.13691766     0.13100
N2410       N  0.48018308  0.32713231  0.13421978    -0.82600
H2411       H  0.56889584  0.37849041  0.16737350     0.17900
N2412       N  0.58376895  0.32841144  0.16962200    -0.81200
H2413       H  0.46604143  0.30333962  0.12903905     0.33600
H2414       H  0.49330492  0.34525387  0.12612152     0.38100
H2415       H  0.59689727  0.35143568  0.17542216     0.33500
H2416       H  0.57167706  0.30867665  0.17719656     0.30200
H2417       H  0.46787872  0.20441888  0.16219546     0.33500
H2418       H  0.48841117  0.24384921  0.16954623     0.30200
H2419       H  0.62734723  0.25273948  0.15043441     0.38100
H2420       H  0.63104855  0.28173716  0.13830385     0.33600
C2421       C  0.50659415  0.90231912  0.37940228    -0.20200
C2422       C  0.49295025  0.86636939  0.37993927     0.36000
C2423       C  0.49849950  0.85167058  0.39229770    -0.26200
C2424       C  0.51731466  0.87236111  0.40400898     0.02500
C2425       C  0.52826271  0.90770603  0.40392510     0.27300
C2426       C  0.52294936  0.92235668  0.39160064    -0.25300
N2427       N  0.47641522  0.84554267  0.36747180    -0.82700
H2428       H  0.49015578  0.82452470  0.39242498     0.13100
C2429       C  0.53033640  0.85872283  0.41533719     0.02400
N2430       N  0.54675979  0.92893347  0.41604807    -0.81200
H2431       H  0.53368700  0.94995923  0.39112359     0.17900
C2432       C  0.56508971  0.86817819  0.41476176    -0.26100
C2433       C  0.58124157  0.86302942  0.42659947     0.35900
C2434       C  0.56210179  0.84745710  0.43916560    -0.20100
C2435       C  0.52655523  0.83513923  0.43927802    -0.25400
C2436       C  0.51049878  0.84102444  0.42749222     0.27300
H2437       H  0.58019108  0.88171540  0.40537333     0.13100
N2438       N  0.61756446  0.87560519  0.42632123    -0.82600
H2439       H  0.51203182  0.82386334  0.44906044     0.17900
N2440       N  0.47475588  0.83083950  0.42812863    -0.81200
H2441       H  0.62811026  0.88700093  0.41639051     0.33600
H2442       H  0.62079111  0.85434749  0.42727501     0.38100
H2443       H  0.46386815  0.81819435  0.43782315     0.33500
H2444       H  0.47327357  0.85320997  0.42813858     0.30200
H2445       H  0.55366425  0.95450267  0.41420585     0.33500
H2446       H  0.52998323  0.92048149  0.42485154     0.30200
H2447       H  0.45375929  0.84594179  0.36577365     0.38100
H2448       H  0.46905830  0.81988592  0.36941035     0.33600
C2449       C  0.21490955  0.70979168  0.32580361    -0.20200
C2450       C  0.21977487  0.74332474  0.32534111     0.36000
C2451       C  0.25335467  0.77192311  0.32494990    -0.26200
C2452       C  0.28215345  0.76787631  0.32454456     0.02500
C2453       C  0.27734668  0.73455429  0.32378428     0.27300
C2454       C  0.24390532  0.70594571  0.32447843    -0.25300
N2455       N  0.19085171  0.74841739  0.32567497    -0.82700
H2456       H  0.25713813  0.79760972  0.32541162     0.13100
C2457       C  0.31709526  0.79873867  0.32564883     0.02400
N2458       N  0.30650493  0.72992732  0.32262455    -0.81200
H2459       H  0.24075421  0.68050214  0.32456033     0.17900
C2460       C  0.33917066  0.80060676  0.33671225    -0.26100
C2461       C  0.37194546  0.82992316  0.33850076     0.35900
C2462       C  0.38272035  0.85805548  0.32905677    -0.20100
C2463       C  0.36038720  0.85622974  0.31810894    -0.25400
C2464       C  0.32792819  0.82675934  0.31619115     0.27300
H2465       H  0.33053026  0.77926511  0.34412825     0.13100
N2466       N  0.39398813  0.83133644  0.34995712    -0.82600
H2467       H  0.36868295  0.87754296  0.31070460     0.17900
N2468       N  0.30611864  0.82495161  0.30454813    -0.81200
H2469       H  0.38233052  0.80834452  0.35579053     0.33600
H2470       H  0.39710874  0.85066618  0.35709572     0.38100
H2471       H  0.31782948  0.84779611  0.29861468     0.33500
H2472       H  0.30323407  0.80545859  0.29756318     0.30200
H2473       H  0.29860102  0.70376805  0.32234669     0.33500
H2474       H  0.31846659  0.74028145  0.31275853     0.30200
H2475       H  0.17696883  0.73804929  0.31616616     0.38100
H2476       H  0.19903653  0.77464778  0.32556491     0.33600
C2477       C  0.53072816  0.86403362  0.32956496    -0.20200
C2478       C  0.50310861  0.83633747  0.32212404     0.36000
C2479       C  0.50000093  0.80369478  0.32220694    -0.26200
C2480       C  0.52354899  0.79786334  0.32966898     0.02500
C2481       C  0.55177288  0.82568057  0.33664507     0.27300
C2482       C  0.55530413  0.85847106  0.33634557    -0.25300
N2483       N  0.47793002  0.84119484  0.31474796    -0.82700
H2484       H  0.47873064  0.78245512  0.31660942     0.13100
C2485       C  0.51796802  0.76238685  0.33033416     0.02400
N2486       N  0.57600995  0.82024132  0.34449737    -0.81200
H2487       H  0.57630643  0.87930363  0.34222215     0.17900
C2488       C  0.54403514  0.75647485  0.32564930    -0.26100
C2489       C  0.54002708  0.72349053  0.32624065     0.35900
C2490       C  0.50860880  0.69527206  0.33128138    -0.20100
C2491       C  0.48262479  0.70143702  0.33606401    -0.25400
C2492       C  0.48706774  0.73462529  0.33575654     0.27300
H2493       H  0.56774384  0.77783495  0.32149779     0.13100
N2494       N  0.56780792  0.71878525  0.32168023    -0.82600
H2495       H  0.45851105  0.68022134  0.33997417     0.17900
N2496       N  0.46034889  0.74027850  0.34098279    -0.81200
H2497       H  0.58845489  0.74184818  0.31783275     0.33600
H2498       H  0.57682477  0.71224952  0.33078978     0.38100
H2499       H  0.43918825  0.71721500  0.34452726     0.33500
H2500       H  0.46996229  0.75639630  0.34998142     0.30200
H2501       H  0.59526647  0.84329047  0.34901483     0.33500
H2502       H  0.56283827  0.80376833  0.35308240     0.30200
H2503       H  0.49048073  0.85848047  0.30632619     0.38100
H2504       H  0.45907598  0.81818693  0.31004719     0.33600
C2505       C  0.52115375  0.00318610  0.27558434    -0.20200
C2506       C  0.55005625  0.03644986  0.27317839     0.36000
C2507       C  0.55652551  0.05055629  0.25923203    -0.26200
C2508       C  0.53542224  0.03196485  0.24763256     0.02500
C2509       C  0.50737245  0.99856261  0.24983154     0.27300
C2510       C  0.50040378  0.98458437  0.26377058    -0.25300
N2511       N  0.57221384  0.05626099  0.28486663    -0.82700
H2512       H  0.57817519  0.07620141  0.25735956     0.13100
C2513       C  0.54272013  0.04793790  0.23320522     0.02400
N2514       N  0.48621905  0.97895579  0.23787118    -0.81200
H2515       H  0.47852139  0.95897128  0.26540210     0.17900
C2516       C  0.56356519  0.04257563  0.22365847    -0.26100
C2517       C  0.57064912  0.05690712  0.20974797     0.35900
C2518       C  0.55599381  0.07665706  0.20524288    -0.20100
C2519       C  0.53545633  0.08224780  0.21505937    -0.25400
C2520       C  0.52868174  0.06808925  0.22895176     0.27300
H2521       H  0.57441358  0.02718880  0.22712406     0.13100
N2522       N  0.59272371  0.05150569  0.20030037    -0.82600
H2523       H  0.52403523  0.09727229  0.21184416     0.17900
N2524       N  0.50765156  0.07411765  0.23878386    -0.81200
H2525       H  0.60047484  0.03566931  0.20514930     0.33600
H2526       H  0.61504894  0.07536261  0.19870250     0.38100
H2527       H  0.49970637  0.08993749  0.23407138     0.33500
H2528       H  0.48534764  0.05050361  0.24077624     0.30200
H2529       H  0.46693630  0.95458086  0.24125540     0.33500
H2530       H  0.47375700  0.99148686  0.23399374     0.30200
H2531       H  0.58618355  0.04460895  0.28789454     0.38100
H2532       H  0.59042447  0.08102355  0.28141983     0.33600
C2533       C  0.03508654  0.63608820  0.15797606    -0.20200
C2534       C  0.04774954  0.66078161  0.14685117     0.36000
C2535       C  0.07266782  0.69510414  0.14997304    -0.26200
C2536       C  0.08498122  0.70557869  0.16402587     0.02500
C2537       C  0.07320117  0.68075062  0.17510957     0.27300
C2538       C  0.04864085  0.64607499  0.17193470    -0.25300
N2539       N  0.03481287  0.65095371  0.13243303    -0.82700
H2540       H  0.08145857  0.71420021  0.14149246     0.13100
C2541       C  0.10629500  0.74324666  0.16695086     0.02400
N2542       N  0.08559565  0.69102634  0.18955611    -0.81200
H2543       H  0.03896937  0.62710608  0.18047654     0.17900
C2544       C  0.09150605  0.75901119  0.17481597    -0.26100
C2545       C  0.10526489  0.79480973  0.17417420     0.35900
C2546       C  0.13465310  0.81530713  0.16565648    -0.20100
C2547       C  0.15181027  0.80008527  0.15919142    -0.25400
C2548       C  0.13776364  0.76410596  0.15970580     0.27300
H2549       H  0.06748272  0.74305735  0.18045317     0.13100
N2550       N  0.08819629  0.81027289  0.18132268    -0.82600
H2551       H  0.17436493  0.81577613  0.15264341     0.17900
N2552       N  0.15409832  0.74838205  0.15218988    -0.81200
H2553       H  0.06667168  0.79171994  0.18697268     0.33600
H2554       H  0.10523193  0.82749994  0.18898188     0.38100
H2555       H  0.17678396  0.76714344  0.14726144     0.33500
H2556       H  0.16126597  0.73630783  0.15987203     0.30200
H2557       H  0.07424904  0.66980547  0.19646189     0.33500
H2558       H  0.11197714  0.69997150  0.18949870     0.30200
H2559       H  0.04191444  0.63353131  0.12875945     0.38100
H2560       H  0.04648750  0.67217268  0.12553579     0.33600
C2561       C  0.47496971  0.03853793  0.15426117    -0.20200
C2562       C  0.45443893  0.01506056  0.16501648     0.36000
C2563       C  0.41858184  0.99565095  0.16319064    -0.26200
C2564       C  0.40301379  0.99973288  0.15088592     0.02500
C2565       C  0.42391078  0.02083383  0.13953760     0.27300
C2566       C  0.45983422  0.04023690  0.14136780    -0.25300
N2567       N  0.46991844  0.01333976  0.17826431    -0.82700
H2568       H  0.40256354  0.97958789  0.17192699     0.13100
C2569       C  0.36563234  0.98759322  0.15139962     0.02400
N2570       N  0.40832056  0.02396816  0.12659778    -0.81200
H2571       H  0.47576959  0.05858442  0.13319240     0.17900
C2572       C  0.35571175  0.01237682  0.15102798    -0.26100
C2573       C  0.32169565  0.00356315  0.15375667     0.35900
C2574       C  0.29665825  0.96915970  0.15699811    -0.20100
C2575       C  0.30618006  0.94392273  0.15662225    -0.25400
C2576       C  0.34051383  0.95285999  0.15392053     0.27300
H2577       H  0.37484710  0.03915011  0.14914916     0.13100
N2578       N  0.31280896  0.02981442  0.15323961    -0.82600
H2579       H  0.28708573  0.91737821  0.15891873     0.17900
N2580       N  0.35013925  0.92703225  0.15398352    -0.81200
H2581       H  0.32807739  0.04888800  0.16071455     0.33600
H2582       H  0.31885329  0.04084706  0.14298037     0.38100
H2583       H  0.32872220  0.90278437  0.15605261     0.33500
H2584       H  0.35861873  0.92595736  0.14361792     0.30200
H2585       H  0.42716658  0.04078215  0.11937455     0.33500
H2586       H  0.39565327  0.99979661  0.12164000     0.30200
H2587       H  0.48653190  0.00428897  0.17580980     0.38100
H2588       H  0.45125505  0.99538628  0.18524833     0.33600
C2589       C  0.31446934  0.83675599  0.94029515    -0.20200
C2590       C  0.34175093  0.82970986  0.94074636     0.36000
C2591       C  0.36401605  0.83829804  0.92886538    -0.26200
C2592       C  0.35959737  0.85343735  0.91652556     0.02500
C2593       C  0.33120429  0.85835718  0.91569092     0.27300
C2594       C  0.30898572  0.85000966  0.92758366    -0.25300
N2595       N  0.34920342  0.81626972  0.95338029    -0.82700
H2596       H  0.38581401  0.83449892  0.92952201     0.13100
C2597       C  0.38630647  0.86715217  0.90504069     0.02400
N2598       N  0.32594126  0.87322272  0.90297804    -0.81200
H2599       H  0.28872166  0.85616817  0.92732022     0.17900
C2600       C  0.38162732  0.84754246  0.89261211    -0.26100
C2601       C  0.40280887  0.86226062  0.88042687     0.35900
C2602       C  0.42905340  0.89728199  0.88071587    -0.20100
C2603       C  0.43507024  0.91617013  0.89349140    -0.25400
C2604       C  0.41408435  0.90139505  0.90569675     0.27300
H2605       H  0.36020860  0.82130545  0.89214673     0.13100
N2606       N  0.39577364  0.84275950  0.86732851    -0.82600
H2607       H  0.45477804  0.94318323  0.89361983     0.17900
N2608       N  0.41989252  0.92147284  0.91854386    -0.81200
H2609       H  0.37479089  0.81785877  0.86868992     0.33600
H2610       H  0.41706626  0.84018711  0.86513751     0.38100
H2611       H  0.44152173  0.94602253  0.91732918     0.33500
H2612       H  0.39888172  0.92493939  0.91994347     0.30200
H2613       H  0.30376198  0.87485720  0.90401422     0.33500
H2614       H  0.34655882  0.89847554  0.90210032     0.30200
H2615       H  0.33084154  0.81021972  0.96140948     0.38100
H2616       H  0.34739108  0.79299954  0.95050121     0.33600
C2617       C  0.14522792  0.80623109  0.98935186    -0.20200
C2618       C  0.12988216  0.82133773  0.99743481     0.36000
C2619       C  0.09399452  0.80689684  0.99680667    -0.26200
C2620       C  0.07357823  0.77794059  0.98818616     0.02500
C2621       C  0.08948374  0.76557369  0.97882428     0.27300
C2622       C  0.12527749  0.77985686  0.97953392    -0.25300
N2623       N  0.15025057  0.84881913  0.00733207    -0.82700
H2624       H  0.08159614  0.81633330  0.00394048     0.13100
C2625       C  0.03637794  0.75626875  0.99141291     0.02400
N2626       N  0.06898821  0.73688536  0.96945834    -0.81200
H2627       H  0.13725837  0.76838388  0.97333894     0.17900
C2628       C  0.01164125  0.75248100  0.98132523    -0.26100
C2629       C  0.97638372  0.72874707  0.98361448     0.35900
C2630       C  0.96592203  0.70804936  0.99613912    -0.20100
C2631       C  0.99087701  0.71289130  0.00638330    -0.25400
C2632       C  0.02587931  0.73655565  0.00413042     0.27300
H2633       H  0.01998866  0.76750424  0.97151215     0.13100
N2634       N  0.95160181  0.72445644  0.97293274    -0.82600
H2635       H  0.98312448  0.69733481  0.01605696     0.17900
N2636       N  0.05103839  0.73982957  0.01448888    -0.81200
H2637       H  0.96387573  0.74011528  0.96403101     0.33600
H2638       H  0.93628688  0.73335716  0.97739104     0.38100
H2639       H  0.03911385  0.72369837  0.02330749     0.33500
H2640       H  0.06622550  0.73127686  0.00959887     0.30200
H2641       H  0.08470512  0.73117367  0.96319166     0.33500
H2642       H  0.05407940  0.71531706  0.97589876     0.30200
H2643       H  0.16770846  0.87010724  0.00125802     0.38100
H2644       H  0.13484305  0.85620728  0.01285941     0.33600
C2645       C  0.29566326  0.96378027  0.99820840    -0.20200
C2646       C  0.32788868  0.98891548  0.00375539     0.36000
C2647       C  0.33696748  0.02355799  0.00402543    -0.26200
C2648       C  0.31479595  0.03393456  0.99854846     0.02500
C2649       C  0.28192651  0.00885463  0.99354074     0.27300
C2650       C  0.27241446  0.97382864  0.99363330    -0.25300
N2651       N  0.35186621  0.97944491  0.00883560    -0.82700
H2652       H  0.36234487  0.04273734  0.00779045     0.13100
C2653       C  0.32884791  0.07128117  0.99627071     0.02400
N2654       N  0.25899733  0.01923655  0.98789728    -0.81200
H2655       H  0.24769625  0.95463663  0.98930271     0.17900
C2656       C  0.33664996  0.08391824  0.98216735    -0.26100
C2657       C  0.35772397  0.11922527  0.97955388     0.35900
C2658       C  0.37071964  0.14252348  0.99118282    -0.20100
C2659       C  0.36049446  0.13028166  0.00525352    -0.25400
C2660       C  0.33987080  0.09465570  0.00792313     0.27300
H2661       H  0.32835138  0.06611485  0.97317583     0.13100
N2662       N  0.36703116  0.13135562  0.96506588    -0.82600
H2663       H  0.37050735  0.14821698  0.01418766     0.17900
N2664       N  0.33139262  0.08191936  0.02240407    -0.81200
H2665       H  0.34444221  0.12380873  0.95928038     0.33600
H2666       H  0.37930275  0.11926568  0.96047011     0.38100
H2667       H  0.34169785  0.10233032  0.02975336     0.33500
H2668       H  0.30464979  0.06950859  0.02344718     0.30200
H2669       H  0.23597838  0.99776234  0.98451150     0.33500
H2670       H  0.25274037  0.03045419  0.99633140     0.30200
H2671       H  0.35770272  0.98735828  0.01956244     0.38100
H2672       H  0.37447722  0.99293914  0.00280791     0.33600
C2673       C  0.21789173  0.84209455  0.04299023    -0.20200
C2674       C  0.19572603  0.81692309  0.05310616     0.36000
C2675       C  0.19053383  0.82738203  0.06667766    -0.26200
C2676       C  0.20681042  0.86219558  0.07051790     0.02500
C2677       C  0.22906147  0.88734976  0.06064070     0.27300
C2678       C  0.23449403  0.87708806  0.04704281    -0.25300
N2679       N  0.17793639  0.78087226  0.04959803    -0.82700
H2680       H  0.17347099  0.80819435  0.07436264     0.13100
C2681       C  0.19878072  0.87170398  0.08470365     0.02400
N2682       N  0.24548783  0.92322380  0.06435415    -0.81200
H2683       H  0.25152230  0.89671807  0.03951205     0.17900
C2684       C  0.22467671  0.88821562  0.09508899    -0.26100
C2685       C  0.21741481  0.89644514  0.10881169     0.35900
C2686       C  0.18321800  0.88772996  0.11221297    -0.20100
C2687       C  0.15759050  0.87138553  0.10160634    -0.25400
C2688       C  0.16499505  0.86341985  0.08796780     0.27300
H2689       H  0.25060895  0.89439117  0.09249842     0.13100
N2690       N  0.24453912  0.91290823  0.11925941    -0.82600
H2691       H  0.13138580  0.86468135  0.10389653     0.17900
N2692       N  0.13825612  0.84685950  0.07736533    -0.81200
H2693       H  0.26734087  0.91523136  0.11533311     0.33600
H2694       H  0.24952894  0.93802455  0.12067315     0.38100
H2695       H  0.11468024  0.84211865  0.08148645     0.33500
H2696       H  0.14434864  0.86399799  0.06879541     0.30200
H2697       H  0.26112077  0.93848864  0.05591269     0.33500
H2698       H  0.22620741  0.92933688  0.06566167     0.30200
H2699       H  0.19625323  0.77325678  0.04930371     0.38100
H2700       H  0.16061574  0.76634121  0.05775229     0.33600
C2701       C  0.69446768  0.92138885  0.16441133    -0.20200
C2702       C  0.69689301  0.94426961  0.17532959     0.36000
C2703       C  0.67498063  0.95798056  0.17498292    -0.26200
C2704       C  0.65119927  0.94962836  0.16375896     0.02500
C2705       C  0.64646240  0.92404993  0.15370743     0.27300
C2706       C  0.66805799  0.91002158  0.15418674    -0.25300
N2707       N  0.72328263  0.95533498  0.18608799    -0.82700
H2708       H  0.67859223  0.97754219  0.18272316     0.13100
C2709       C  0.63733654  0.97277481  0.16087145     0.02400
N2710       N  0.62136615  0.91431190  0.14245229    -0.81200
H2711       H  0.66643942  0.89267735  0.14572410     0.17900
C2712       C  0.64815809  0.99257952  0.14828142    -0.26100
C2713       C  0.63969688  0.01794009  0.14556203     0.35900
C2714       C  0.61997553  0.02400932  0.15572084    -0.20100
C2715       C  0.60777167  0.00315074  0.16807237    -0.25400
C2716       C  0.61648310  0.97768791  0.17079061     0.27300
H2717       H  0.66427630  0.98890018  0.14069321     0.13100
N2718       N  0.65139761  0.03782697  0.13253010    -0.82600
H2719       H  0.59250147  0.00754989  0.17584634     0.17900
N2720       N  0.60474282  0.95721041  0.18363766    -0.81200
H2721       H  0.66594965  0.03050008  0.12631750     0.33600
H2722       H  0.62966270  0.03208138  0.12643872     0.38100
H2723       H  0.58980792  0.96406476  0.18984452     0.33500
H2724       H  0.58857693  0.93162649  0.18048948     0.30200
H2725       H  0.62146974  0.89569098  0.13577056     0.33500
H2726       H  0.59713744  0.90276908  0.14732767     0.30200
H2727       H  0.71819014  0.93369309  0.19210745     0.38100
H2728       H  0.72199058  0.97255382  0.19324691     0.33600
C2729       C  0.87328323  0.87681082  0.16879800    -0.20200
C2730       C  0.88334120  0.85748200  0.17739638     0.36000
C2731       C  0.91640391  0.86218995  0.17572245    -0.26200
C2732       C  0.93997011  0.88629362  0.16596846     0.02500
C2733       C  0.93008421  0.90535958  0.15730103     0.27300
C2734       C  0.89680878  0.90030083  0.15873770    -0.25300
N2735       N  0.86068741  0.83427533  0.18824492    -0.82700
H2736       H  0.92426618  0.84766945  0.18235314     0.13100
C2737       C  0.97528741  0.89195411  0.16523120     0.02400
N2738       N  0.95420081  0.93037063  0.14733570    -0.81200
H2739       H  0.88952601  0.91544902  0.15222040     0.17900
C2740       C  0.98621638  0.88343950  0.15258326    -0.26100
C2741       C  0.01925088  0.88781142  0.15155374     0.35900
C2742       C  0.04199917  0.90152104  0.16340427    -0.20100
C2743       C  0.03128881  0.91078079  0.17594786    -0.25400
C2744       C  0.99799652  0.90586034  0.17702438     0.27300
H2745       H  0.96868759  0.87294621  0.14354438     0.13100
N2746       N  0.03010058  0.87945206  0.13835323    -0.82600
H2747       H  0.04874644  0.92131309  0.18500637     0.17900
N2748       N  0.98709811  0.91492552  0.19001669    -0.81200
H2749       H  0.01143877  0.87263615  0.13035936     0.33600
H2750       H  0.03167245  0.85747590  0.14020887     0.38100
H2751       H  0.00674729  0.92464383  0.19769589     0.33500
H2752       H  0.98259013  0.93486933  0.18753054     0.30200
H2753       H  0.94295912  0.94225509  0.14176356     0.33500
H2754       H  0.97446221  0.94964018  0.15333210     0.30200
H2755       H  0.85790392  0.84909858  0.19620935     0.38100
H2756       H  0.87172980  0.82154814  0.19330208     0.33600
C2757       C  0.69630226  0.76585796  0.15838612    -0.20200
C2758       C  0.70787002  0.74323547  0.15430247     0.36000
C2759       C  0.68425196  0.70777408  0.15330093    -0.26200
C2760       C  0.64909780  0.69423478  0.15598623     0.02500
C2761       C  0.63717679  0.71702115  0.15919586     0.27300
C2762       C  0.66091146  0.75265416  0.16032649    -0.25300
N2763       N  0.74373141  0.75631120  0.15141832    -0.82700
H2764       H  0.69356501  0.69042211  0.15091823     0.13100
C2765       C  0.62607859  0.65607484  0.15670164     0.02400
N2766       N  0.60114832  0.70376729  0.16162316    -0.81200
H2767       H  0.65193761  0.76994179  0.16336985     0.17900
C2768       C  0.60782962  0.64122949  0.16947999    -0.26100
C2769       C  0.59061477  0.60544162  0.17163637     0.35900
C2770       C  0.59153816  0.58405058  0.16080442    -0.20100
C2771       C  0.60807109  0.59846841  0.14772216    -0.25400
C2772       C  0.62534023  0.63432998  0.14553528     0.27300
H2773       H  0.60868711  0.65775665  0.17814444     0.13100
N2774       N  0.57378462  0.59077646  0.18510045    -0.82600
H2775       H  0.60915282  0.58190947  0.13952944     0.17900
N2776       N  0.64321781  0.64888523  0.13225064    -0.81200
H2777       H  0.57578435  0.60996656  0.19204965     0.33600
H2778       H  0.54758625  0.57456403  0.18297192     0.38100
H2779       H  0.64052912  0.62951466  0.12523729     0.33500
H2780       H  0.63139867  0.66095769  0.12728793     0.30200
H2781       H  0.59659884  0.72376931  0.16397356     0.33500
H2782       H  0.58827573  0.69259163  0.15199771     0.30200
H2783       H  0.75039368  0.77223369  0.14238103     0.38100
H2784       H  0.74803123  0.73632503  0.14868850     0.33600
C2785       C  0.50139587  0.64754067  0.88173201    -0.20200
C2786       C  0.51111224  0.64071293  0.89512964     0.36000
C2787       C  0.51550703  0.66214556  0.90692924    -0.26200
C2788       C  0.51123124  0.69066811  0.90534429     0.02500
C2789       C  0.49921996  0.69604560  0.89220720     0.27300
C2790       C  0.49404787  0.67411125  0.88052095    -0.25300
N2791       N  0.51897067  0.61372108  0.89635771    -0.82700
H2792       H  0.52493323  0.65828915  0.91706181     0.13100
C2793       C  0.52533895  0.71766021  0.91658297     0.02400
N2794       N  0.49454176  0.72505160  0.89056884    -0.81200
H2795       H  0.48711820  0.67956030  0.87012690     0.17900
C2796       C  0.55759201  0.74710574  0.91416489    -0.26100
C2797       C  0.57553004  0.77028273  0.92538913     0.35900
C2798       C  0.56044091  0.76426407  0.93916210    -0.20100
C2799       C  0.52681870  0.73639216  0.94121224    -0.25400
C2800       C  0.50933838  0.71260327  0.93008858     0.27300
H2801       H  0.56971724  0.75077507  0.90371989     0.13100
N2802       N  0.60970095  0.79886860  0.92309653    -0.82600
H2803       H  0.51546411  0.73134749  0.95187205     0.17900
N2804       N  0.47636683  0.68241197  0.93264075    -0.81200
H2805       H  0.61729129  0.79940571  0.91241138     0.33600
H2806       H  0.60895026  0.82139067  0.92475030     0.38100
H2807       H  0.46844968  0.68213040  0.94325189     0.33500
H2808       H  0.45852027  0.68392113  0.92599778     0.30200
H2809       H  0.48623377  0.72577137  0.88014238     0.33500
H2810       H  0.47479072  0.72144378  0.89754795     0.30200
H2811       H  0.49628904  0.59041309  0.89437189     0.38100
H2812       H  0.52644012  0.61243115  0.90687723     0.33600
C2813       C  0.69502417  0.91979834  0.99155955    -0.20200
C2814       C  0.72116611  0.93770891  0.00183394     0.36000
C2815       C  0.74177336  0.97373479  0.00092612    -0.26200
C2816       C  0.73657452  0.99202884  0.98998518     0.02500
C2817       C  0.71279873  0.97374930  0.97890210     0.27300
C2818       C  0.69208647  0.93770699  0.97984595    -0.25300
N2819       N  0.72428165  0.91965940  0.01393221    -0.82700
H2820       H  0.76012781  0.98787783  0.00939329     0.13100
C2821       C  0.75072777  0.02959161  0.99185018     0.02400
N2822       N  0.70815986  0.99198731  0.96728115    -0.81200
H2823       H  0.67186021  0.92380785  0.97201007     0.17900
C2824       C  0.77362023  0.05328111  0.98172181    -0.26100
C2825       C  0.78471813  0.08866186  0.98278867     0.35900
C2826       C  0.77220649  0.10027249  0.99414097    -0.20100
C2827       C  0.75006012  0.07648702  0.00441882    -0.25400
C2828       C  0.73903010  0.04140948  0.00335678     0.27300
H2829       H  0.78232263  0.04400842  0.97284783     0.13100
N2830       N  0.80711745  0.11230153  0.97202435    -0.82600
H2831       H  0.74054096  0.08522181  0.01319612     0.17900
N2832       N  0.71503137  0.01748178  0.01368548    -0.81200
H2833       H  0.81218282  0.09922314  0.96398545     0.33600
H2834       H  0.83070283  0.12883328  0.97695819     0.38100
H2835       H  0.70914220  0.03032505  0.02153848     0.33500
H2836       H  0.69208526  0.00121197  0.00825124     0.30200
H2837       H  0.68992061  0.97472180  0.95996894     0.33500
H2838       H  0.69810989  0.00644097  0.97160804     0.30200
H2839       H  0.73202930  0.90295114  0.00998565     0.38100
H2840       H  0.74371583  0.93677249  0.02088065     0.33600
C2841       C  0.50869188  0.82617250  0.99217904    -0.20200
C2842       C  0.49983451  0.83878902  0.00436126     0.36000
C2843       C  0.47011298  0.84107617  0.00416278    -0.26200
C2844       C  0.44903980  0.83098259  0.99199913     0.02500
C2845       C  0.45681450  0.81700614  0.97998730     0.27300
C2846       C  0.48661652  0.81449153  0.98022135    -0.25300
N2847       N  0.52082920  0.84899871  0.01703052    -0.82700
H2848       H  0.46384629  0.85150191  0.01343024     0.13100
C2849       C  0.42036231  0.83762805  0.99166532     0.02400
N2850       N  0.43491873  0.80635300  0.96752376    -0.81200
H2851       H  0.49320365  0.80447216  0.97091657     0.17900
C2852       C  0.42575658  0.86799336  0.98525741    -0.26100
C2853       C  0.39909537  0.87525852  0.98433426     0.35900
C2854       C  0.36661268  0.85194832  0.99038983    -0.20100
C2855       C  0.36183248  0.82206259  0.99727794    -0.25400
C2856       C  0.38832868  0.81449814  0.99783257     0.27300
H2857       H  0.45065661  0.88557404  0.98057601     0.13100
N2858       N  0.40449978  0.90521191  0.97662434    -0.82600
H2859       H  0.33690732  0.80387438  0.00177194     0.17900
N2860       N  0.38276377  0.78327771  0.00442106    -0.81200
H2861       H  0.43007154  0.91998422  0.97323464     0.33600
H2862       H  0.38961533  0.89669436  0.96725755     0.38100
H2863       H  0.35774746  0.76909079  0.00850314     0.33500
H2864       H  0.38474215  0.76817834  0.99635607     0.30200
H2865       H  0.44444496  0.79699815  0.95955785     0.33500
H2866       H  0.41094033  0.78575514  0.97057880     0.30200
H2867       H  0.52878144  0.87472490  0.01920774     0.38100
H2868       H  0.50561352  0.83411908  0.02564026     0.33600
C2869       C  0.80132234  0.68704609  0.99585102    -0.20200
C2870       C  0.77475295  0.67682116  0.00603778     0.36000
C2871       C  0.75867687  0.69628759  0.00767819    -0.26200
C2872       C  0.76792591  0.72514251  0.99898383     0.02500
C2873       C  0.79647619  0.73698646  0.98963669     0.27300
C2874       C  0.81312945  0.71785350  0.98825026    -0.25300
N2875       N  0.76272434  0.64538082  0.01394870    -0.82700
H2876       H  0.73708165  0.68748205  0.01498939     0.13100
C2877       C  0.74400831  0.73869254  0.99806198     0.02400
N2878       N  0.80702340  0.76703429  0.98093486    -0.81200
H2879       H  0.83339013  0.72537928  0.98034151     0.17900
C2880       C  0.75536585  0.77341272  0.00100906    -0.26100
C2881       C  0.73302981  0.78659697  0.99961702     0.35900
C2882       C  0.69866127  0.76451624  0.99503313    -0.20100
C2883       C  0.68749642  0.72966277  0.99239230    -0.25400
C2884       C  0.70967102  0.71667372  0.99369937     0.27300
H2885       H  0.78175471  0.79024942  0.00436868     0.13100
N2886       N  0.74548453  0.82233674  0.00248070    -0.82600
H2887       H  0.66127697  0.71228390  0.98897182     0.17900
N2888       N  0.69760531  0.68121352  0.99025950    -0.81200
H2889       H  0.77170450  0.83523072  0.00496876     0.33600
H2890       H  0.73295636  0.82363684  0.01172790     0.38100
H2891       H  0.67163872  0.66835827  0.98734250     0.33500
H2892       H  0.71122034  0.68079373  0.98121968     0.30200
H2893       H  0.82847362  0.77233055  0.97470574     0.33500
H2894       H  0.78709371  0.76151060  0.97373041     0.30200
H2895       H  0.78290351  0.64848175  0.02050805     0.38100
H2896       H  0.74253947  0.64105643  0.02081535     0.33600
C2897       C  0.66248839  0.84307226  0.04285457    -0.20200
C2898       C  0.66967774  0.81920964  0.04954904     0.36000
C2899       C  0.68340062  0.82587991  0.06357261    -0.26200
C2900       C  0.68939992  0.85537288  0.07108010     0.02500
C2901       C  0.68126338  0.87851897  0.06467189     0.27300
C2902       C  0.66825533  0.87235937  0.05061870    -0.25300
N2903       N  0.66273485  0.78820386  0.04224410    -0.82700
H2904       H  0.68950195  0.80808668  0.06868680     0.13100
C2905       C  0.70516326  0.86269285  0.08554126     0.02400
N2906       N  0.68628699  0.90823244  0.07252457    -0.81200
H2907       H  0.66262042  0.89070040  0.04572997     0.17900
C2908       C  0.73826864  0.89123515  0.08726934    -0.26100
C2909       C  0.75333471  0.90120544  0.10094053     0.35900
C2910       C  0.73463815  0.88229048  0.11316656    -0.20100
C2911       C  0.70188666  0.85292090  0.11133113    -0.25400
C2912       C  0.68683509  0.84306404  0.09761338     0.27300
H2913       H  0.75222417  0.90598739  0.07787791     0.13100
N2914       N  0.78758008  0.93029462  0.10241925    -0.82600
H2915       H  0.68753418  0.83828204  0.12067393     0.17900
N2916       N  0.65278548  0.81380135  0.09591783    -0.81200
H2917       H  0.79753404  0.94145631  0.09239129     0.33600
H2918       H  0.80321399  0.92116686  0.10625768     0.38100
H2919       H  0.64285696  0.80210700  0.10586709     0.33500
H2920       H  0.63692466  0.82279511  0.09222530     0.30200
H2921       H  0.67918079  0.92284106  0.06627255     0.33500
H2922       H  0.66966313  0.89946204  0.08138030     0.30200
H2923       H  0.63606510  0.77290583  0.04104922     0.38100
H2924       H  0.67031024  0.77404988  0.04854936     0.33600
C2925       C  0.24824326  0.36514316  0.16279748    -0.20200
C2926       C  0.26717922  0.35847976  0.17300894     0.36000
C2927       C  0.30303164  0.38026064  0.17373791    -0.26200
C2928       C  0.32017350  0.40819595  0.16429436     0.02500
C2929       C  0.30079237  0.41684930  0.15513870     0.27300
C2930       C  0.26481548  0.39530480  0.15456813    -0.25300
N2931       N  0.25010957  0.32811672  0.18180090    -0.82700
H2932       H  0.31790026  0.37364242  0.18077618     0.13100
C2933       C  0.35774827  0.42332661  0.16211478     0.02400
N2934       N  0.31802477  0.44611822  0.14576817    -0.81200
H2935       H  0.25018244  0.40018723  0.14666472     0.17900
C2936       C  0.36901821  0.41879771  0.14864976    -0.26100
C2937       C  0.40324601  0.42755237  0.14644910     0.35900
C2938       C  0.42683816  0.44122946  0.15795260    -0.20100
C2939       C  0.41612321  0.44740593  0.17125858    -0.25400
C2940       C  0.38158444  0.43824383  0.17349433     0.27300
H2941       H  0.35062621  0.40701107  0.13996041     0.13100
N2942       N  0.41408589  0.42207465  0.13262459    -0.82600
H2943       H  0.43432007  0.45792157  0.18007391     0.17900
N2944       N  0.37038663  0.44317245  0.18731689    -0.81200
H2945       H  0.39355600  0.41155247  0.12535686     0.33600
H2946       H  0.43232955  0.44616644  0.12855306     0.38100
H2947       H  0.39097383  0.45418941  0.19455205     0.33500
H2948       H  0.36222184  0.46090505  0.18599987     0.30200
H2949       H  0.30018790  0.44863966  0.13952707     0.33500
H2950       H  0.33041792  0.46806648  0.15226339     0.30200
H2951       H  0.23280420  0.33061184  0.18845498     0.38100
H2952       H  0.26770656  0.32655491  0.18859033     0.33600
C2953       C  0.16475022  0.18511948  0.16433417    -0.20200
C2954       C  0.14556293  0.15692742  0.17369935     0.36000
C2955       C  0.15307348  0.13016942  0.17428644    -0.26200
C2956       C  0.17872257  0.13068410  0.16554295     0.02500
C2957       C  0.19769794  0.15853022  0.15620894     0.27300
C2958       C  0.19061909  0.18537439  0.15572266    -0.25300
N2959       N  0.11909778  0.15570175  0.18274133    -0.82700
H2960       H  0.13855015  0.10852249  0.18143038     0.13100
C2961       C  0.18488631  0.10141387  0.16588772     0.02400
N2962       N  0.22396139  0.15927406  0.14717867    -0.81200
H2963       H  0.20537116  0.20659169  0.14841577     0.17900
C2964       C  0.17062607  0.07626982  0.15508424    -0.26100
C2965       C  0.17461184  0.04737940  0.15535277     0.35900
C2966       C  0.19366155  0.04363764  0.16651770    -0.20100
C2967       C  0.20924296  0.06979392  0.17697599    -0.25400
C2968       C  0.20488069  0.09854735  0.17680435     0.27300
H2969       H  0.15566155  0.07872256  0.14655702     0.13100
N2970       N  0.15895547  0.02173960  0.14433224    -0.82600
H2971       H  0.22345564  0.06699845  0.18573106     0.17900
N2972       N  0.21991318  0.12441207  0.18784743    -0.81200
H2973       H  0.16851112  0.03362533  0.13438325     0.33600
H2974       H  0.13247435  0.01229988  0.14450309     0.38100
H2975       H  0.23337135  0.11823514  0.19523789     0.33500
H2976       H  0.23802246  0.14743541  0.18293187     0.30200
H2977       H  0.23533039  0.18138031  0.14077443     0.33500
H2978       H  0.24331843  0.16096896  0.15389580     0.30200
H2979       H  0.09878298  0.15174244  0.17606520     0.38100
H2980       H  0.10915032  0.13439836  0.18959120     0.33600
C2981       C  0.02171197  0.19266305  0.16625970    -0.20200
C2982       C  0.01948170  0.16366789  0.15924060     0.36000
C2983       C  0.98950896  0.13137856  0.16071939    -0.26200
C2984       C  0.96165061  0.12728392  0.16890286     0.02500
C2985       C  0.96329042  0.15612905  0.17566354     0.27300
C2986       C  0.99312807  0.18840363  0.17416045    -0.25300
N2987       N  0.04766914  0.16681473  0.15080216    -0.82700
H2988       H  0.98773632  0.10911885  0.15541098     0.13100
C2989       C  0.93059587  0.09278740  0.16938955     0.02400
N2990       N  0.93544114  0.15374271  0.18412616    -0.81200
H2991       H  0.99428018  0.21008276  0.17972950     0.17900
C2992       C  0.92718051  0.06950315  0.18013714    -0.26100
C2993       C  0.89901272  0.03557448  0.18014099     0.35900
C2994       C  0.87410020  0.02502448  0.16911141    -0.20100
C2995       C  0.87740694  0.04885446  0.15859135    -0.25400
C2996       C  0.90551358  0.08258464  0.15859022     0.27300
H2997       H  0.94673186  0.07776751  0.18840825     0.13100
N2998       N  0.89560174  0.01196850  0.19126904    -0.82600
H2999       H  0.85847888  0.04084498  0.15007114     0.17900
N3000       N  0.90935149  0.10631401  0.14742924    -0.81200
H3001       H  0.91620522  0.02376558  0.19847366     0.33600
H3002       H  0.87341563  0.00570964  0.19715485     0.38100
H3003       H  0.88903272  0.09457489  0.14009116     0.33500
H3004       H  0.90769961  0.12637530  0.15224850     0.30200
H3005       H  0.94426905  0.16056255  0.19470185     0.33500
H3006       H  0.91456201  0.12861429  0.18452560     0.30200
H3007       H  0.05048391  0.18213822  0.14188662     0.38100
H3008       H  0.04212035  0.14288109  0.14676901     0.33600
C3009       C  0.02221815  0.47624875  0.15664240    -0.20200
C3010       C  0.02005885  0.45993140  0.14342122     0.36000
C3011       C  0.03904862  0.44335959  0.14144969    -0.26200
C3012       C  0.05964996  0.44245611  0.15255506     0.02500
C3013       C  0.06354337  0.46080584  0.16541958     0.27300
C3014       C  0.04489115  0.47772958  0.16728765    -0.25300
N3015       N  0.99646375  0.45787971  0.13255420    -0.82700
H3016       H  0.03601061  0.42911693  0.13161582     0.13100
C3017       C  0.07207872  0.41770281  0.15164615     0.02400
N3018       N  0.08451905  0.46017373  0.17690659    -0.81200
H3019       H  0.04589433  0.48975659  0.17753368     0.17900
C3020       C  0.10742692  0.42939798  0.15206365    -0.26100
C3021       C  0.11942926  0.40605348  0.15298502     0.35900
C3022       C  0.09537335  0.37028495  0.15374799    -0.20100
C3023       C  0.06011268  0.35885761  0.15261361    -0.25400
C3024       C  0.04823261  0.38205065  0.15168887     0.27300
H3025       H  0.12561459  0.45684630  0.15201416     0.13100
N3026       N  0.15571392  0.41869790  0.15381060    -0.82600
H3027       H  0.04145964  0.33154187  0.15296058     0.17900
N3028       N  0.01189018  0.36953356  0.15137713    -0.81200
H3029       H  0.16962073  0.44560674  0.15388589     0.33600
H3030       H  0.16275664  0.41120568  0.14436107     0.38100
H3031       H  0.99779239  0.34262930  0.15136421     0.33500
H3032       H  0.00554259  0.37740870  0.16090745     0.30200
H3033       H  0.08471287  0.47501084  0.18560735     0.33500
H3034       H  0.07310717  0.43483595  0.18061184     0.30200
H3035       H  0.00488362  0.48293103  0.12904958     0.38100
H3036       H  0.99723213  0.44420836  0.12359840     0.33600
C3037       C  0.24072919  0.50901687  0.93354861    -0.20200
C3038       C  0.24906728  0.54364108  0.93491898     0.36000
C3039       C  0.24250520  0.55969684  0.92336357    -0.26200
C3040       C  0.22842553  0.54197504  0.91045189     0.02500
C3041       C  0.22349512  0.50872513  0.90856300     0.27300
C3042       C  0.22947700  0.49247363  0.92017507    -0.25300
N3043       N  0.26081980  0.56111106  0.94850299    -0.82700
H3044       H  0.24631844  0.58525331  0.92473187     0.13100
C3045       C  0.21374484  0.55561823  0.89986916     0.02400
N3046       N  0.21065990  0.49092563  0.89509730    -0.81200
H3047       H  0.22281117  0.46586178  0.91914547     0.17900
C3048       C  0.23281827  0.57370898  0.88773185    -0.26100
C3049       C  0.21682325  0.57978222  0.87599246     0.35900
C3050       C  0.18098701  0.56717902  0.87647479    -0.20100
C3051       C  0.16292785  0.55225610  0.88926829    -0.25400
C3052       C  0.17893460  0.54638588  0.90097327     0.27300
H3053       H  0.25966038  0.58107819  0.88703234     0.13100
N3054       N  0.23634611  0.59639945  0.86324949    -0.82600
H3055       H  0.13555838  0.54279680  0.88971811     0.17900
N3056       N  0.15954183  0.52950765  0.91371559    -0.81200
H3057       H  0.26237602  0.60483448  0.86482837     0.33600
H3058       H  0.22790285  0.57798238  0.85505622     0.38100
H3059       H  0.13445067  0.52489364  0.91290711     0.33500
H3060       H  0.15747185  0.50540979  0.91436214     0.30200
H3061       H  0.20890250  0.46692998  0.89539101     0.33500
H3062       H  0.18561429  0.48609622  0.89373005     0.30200
H3063       H  0.28510395  0.56440643  0.95046901     0.38100
H3064       H  0.26417832  0.58577083  0.94795431     0.33600
C3065       C  0.26085602  0.37178474  0.98665351    -0.20200
C3066       C  0.23994765  0.33758979  0.99149592     0.36000
C3067       C  0.25301850  0.31506120  0.99115253    -0.26200
C3068       C  0.28613405  0.32606354  0.98578895     0.02500
C3069       C  0.30538056  0.35901615  0.97959235     0.27300
C3070       C  0.29251683  0.38148690  0.98007176    -0.25300
N3071       N  0.20696498  0.32684565  0.99784763    -0.82700
H3072       H  0.23835382  0.28970011  0.99590740     0.13100
C3073       C  0.30364186  0.30667283  0.98927996     0.02400
N3074       N  0.33897362  0.37034509  0.97371600    -0.81200
H3075       H  0.30840445  0.40763084  0.97621366     0.17900
C3076       C  0.31033905  0.28914489  0.97844116    -0.26100
C3077       C  0.33351611  0.27735932  0.98080331     0.35900
C3078       C  0.35112810  0.28445673  0.99408472    -0.20100
C3079       C  0.34262186  0.30007895  0.00514883    -0.25400
C3080       C  0.31890621  0.31098907  0.00293047     0.27300
H3081       H  0.29857851  0.28597146  0.96796030     0.13100
N3082       N  0.34074719  0.26021905  0.96950063    -0.82600
H3083       H  0.35557504  0.30497578  0.01544370     0.17900
N3084       N  0.31142634  0.32791238  0.01429662    -0.81200
H3085       H  0.32690710  0.25854649  0.96021902     0.33600
H3086       H  0.33155165  0.23492387  0.97287219     0.38100
H3087       H  0.32436555  0.32862736  0.02373216     0.33500
H3088       H  0.32107184  0.35348844  0.01122918     0.30200
H3089       H  0.34962265  0.39512554  0.96945293     0.33500
H3090       H  0.35501058  0.37206938  0.98218156     0.30200
H3091       H  0.19109914  0.32715593  0.98973877     0.38100
H3092       H  0.19546023  0.30136087  0.00137006     0.33600
C3093       C  0.20301672  0.53930129  0.98013513    -0.20200
C3094       C  0.22294722  0.56367760  0.99082827     0.36000
C3095       C  0.22396375  0.59526375  0.99150461    -0.26200
C3096       C  0.20592263  0.60337883  0.98154379     0.02500
C3097       C  0.18569788  0.57915086  0.97092503     0.27300
C3098       C  0.18414021  0.54720523  0.97042018    -0.25300
N3099       N  0.24248803  0.55665777  0.00094928    -0.82700
H3100       H  0.23958638  0.61392348  0.99965853     0.13100
C3101       C  0.20977573  0.63800152  0.98203000     0.02400
N3102       N  0.16800981  0.58766050  0.96035421    -0.81200
H3103       H  0.16942085  0.52909133  0.96195671     0.17900
C3104       C  0.23671731  0.66506030  0.97439370    -0.26100
C3105       C  0.24244268  0.69877504  0.97511929     0.35900
C3106       C  0.22077894  0.70561634  0.98383576    -0.20100
C3107       C  0.19337311  0.67800052  0.99126031    -0.25400
C3108       C  0.18772213  0.64438460  0.99045934     0.27300
H3109       H  0.25352433  0.65981889  0.96791796     0.13100
N3110       N  0.27029560  0.72591287  0.96712072    -0.82600
H3111       H  0.17662059  0.68269439  0.99802445     0.17900
N3112       N  0.16031989  0.61689413  0.99851040    -0.81200
H3113       H  0.28424082  0.71669500  0.96164454     0.33600
H3114       H  0.25952203  0.73406396  0.95923579     0.38100
H3115       H  0.14682146  0.62597074  0.00442218     0.33500
H3116       H  0.14285531  0.59900930  0.99115466     0.30200
H3117       H  0.15503939  0.56741647  0.95304016     0.33500
H3118       H  0.14920894  0.59049550  0.96568575     0.30200
H3119       H  0.26835852  0.57580351  0.99990488     0.38100
H3120       H  0.23440598  0.55833602  0.01131771     0.33600
C3121       C  0.52701936  0.69506784  0.98282258    -0.20200
C3122       C  0.51516452  0.67026291  0.97162963     0.36000
C3123       C  0.48161535  0.64172845  0.97228984    -0.26200
C3124       C  0.45977207  0.63741570  0.98382924     0.02500
C3125       C  0.47182119  0.66145713  0.99519963     0.27300
C3126       C  0.50536488  0.68986845  0.99462563    -0.25300
N3127       N  0.53637574  0.67487003  0.95929497    -0.82700
H3128       H  0.47223159  0.62288137  0.96367626     0.13100
C3129       C  0.42424363  0.60757778  0.98389398     0.02400
N3130       N  0.44956366  0.65744558  0.00706108    -0.81200
H3131       H  0.51419749  0.70876609  0.00321230     0.17900
C3132       C  0.41403927  0.58386709  0.99517471    -0.26100
C3133       C  0.38046465  0.55557344  0.99588329     0.35900
C3134       C  0.35665408  0.55061243  0.98490243    -0.20100
C3135       C  0.36687116  0.57451389  0.97362385    -0.25400
C3136       C  0.40054645  0.60297078  0.97298841     0.27300
H3137       H  0.43239909  0.58762549  0.00351512     0.13100
N3138       N  0.37034846  0.53221231  0.00785136    -0.82600
H3139       H  0.34867066  0.57076565  0.96521581     0.17900
N3140       N  0.41078487  0.62725452  0.96137250    -0.81200
H3141       H  0.39102193  0.53935900  0.01485451     0.33600
H3142       H  0.35171627  0.53438086  0.01368541     0.38100
H3143       H  0.39042238  0.62003003  0.95418909     0.33500
H3144       H  0.41649429  0.65092797  0.96576780     0.30200
H3145       H  0.46238429  0.67733265  0.01454171     0.33500
H3146       H  0.42924217  0.65973538  0.00300140     0.30200
H3147       H  0.55647939  0.67147446  0.96272872     0.38100
H3148       H  0.52272638  0.65575133  0.95159485     0.33600
C3149       C  0.10035003  0.35765739  0.98608788    -0.20200
C3150       C  0.07827188  0.34880636  0.97409137     0.36000
C3151       C  0.04282010  0.32601358  0.97585054    -0.26200
C3152       C  0.02904129  0.31173932  0.98933137     0.02500
C3153       C  0.05136396  0.31828172  0.00107376     0.27300
C3154       C  0.08703002  0.34107599  0.99930429    -0.25300
N3155       N  0.09193895  0.36381850  0.96024864    -0.82700
H3156       H  0.02558214  0.32073034  0.96684577     0.13100
C3157       C  0.99130266  0.29538826  0.99132196     0.02400
N3158       N  0.03763876  0.30251028  0.01478892    -0.81200
H3159       H  0.10410835  0.34752293  0.00844945     0.17900
C3160       C  0.96916187  0.26031682  0.98826194    -0.26100
C3161       C  0.93307762  0.24598876  0.98790344     0.35900
C3162       C  0.91922909  0.26735721  0.99062344    -0.20100
C3163       C  0.94157740  0.30200897  0.99431908    -0.25400
C3164       C  0.97733390  0.31626585  0.99458437     0.27300
H3165       H  0.98012616  0.24454132  0.98554910     0.13100
N3166       N  0.91082627  0.21069911  0.98376161    -0.82600
H3167       H  0.93108634  0.31854902  0.99630174     0.17900
N3168       N  0.99972609  0.35246503  0.99723185    -0.81200
H3169       H  0.92520834  0.19900163  0.98149919     0.33600
H3170       H  0.89539868  0.19774116  0.99263812     0.38100
H3171       H  0.98545483  0.36452464  0.99892452     0.33500
H3172       H  0.01301743  0.35514951  0.00679646     0.30200
H3173       H  0.05748399  0.30975344  0.02225018     0.33500
H3174       H  0.02233356  0.31200232  0.01867553     0.30200
H3175       H  0.10858091  0.35535813  0.95698706     0.38100
H3176       H  0.07233107  0.35479427  0.95256420     0.33600
C3177       C  0.21243296  0.40640148  0.03825520    -0.20200
C3178       C  0.18169245  0.37487976  0.04099880     0.36000
C3179       C  0.17425472  0.36165096  0.05513433    -0.26200
C3180       C  0.19662111  0.37920949  0.06663849     0.02500
C3181       C  0.22645803  0.41135682  0.06402278     0.27300
C3182       C  0.23416841  0.42436356  0.04991609    -0.25300
N3183       N  0.15856680  0.35587310  0.02944133    -0.82700
H3184       H  0.15137823  0.33692464  0.05711586     0.13100
C3185       C  0.18943873  0.36311754  0.08123540     0.02400
N3186       N  0.24885812  0.43069524  0.07573207    -0.81200
H3187       H  0.25742728  0.44884609  0.04804020     0.17900
C3188       C  0.21479402  0.35892101  0.08807483    -0.26100
C3189       C  0.20956867  0.34446989  0.10191522     0.35900
C3190       C  0.17780781  0.33299061  0.10898934    -0.20100
C3191       C  0.15238335  0.33706357  0.10213024    -0.25400
C3192       C  0.15787696  0.35206796  0.08837198     0.27300
H3193       H  0.23895779  0.36718902  0.08259043     0.13100
N3194       N  0.23669278  0.34212860  0.10890888    -0.82600
H3195       H  0.12803270  0.32839190  0.10751995     0.17900
N3196       N  0.13167119  0.35644753  0.08169636    -0.81200
H3197       H  0.25829115  0.35160458  0.10223238     0.33600
H3198       H  0.24425856  0.35820836  0.11794721     0.38100
H3199       H  0.10993971  0.34677604  0.08830253     0.33500
H3200       H  0.14131652  0.38287513  0.08069969     0.30200
H3201       H  0.26977479  0.45373318  0.07202073     0.33500
H3202       H  0.23499174  0.43741115  0.08269420     0.30200
H3203       H  0.17121077  0.34739117  0.02262965     0.38100
H3204       H  0.13681350  0.33380881  0.03334886     0.33600
C3205       C  0.50992973  0.23499681  0.54738447    -0.20200
C3206       C  0.49285927  0.22127245  0.56053582     0.36000
C3207       C  0.51090498  0.21750364  0.57204521    -0.26200
C3208       C  0.54537228  0.22631223  0.57048230     0.02500
C3209       C  0.56302118  0.24190631  0.55763181     0.27300
C3210       C  0.54518928  0.24655022  0.54624610    -0.25300
N3211       N  0.45676068  0.20924239  0.56180110    -0.82700
H3212       H  0.49738316  0.20527162  0.58191407     0.13100
C3213       C  0.55979226  0.21271168  0.58119559     0.02400
N3214       N  0.59810640  0.25047239  0.55581124    -0.81200
H3215       H  0.55802568  0.25632047  0.53600237     0.17900
C3216       C  0.55182935  0.17853279  0.57960775    -0.26100
C3217       C  0.55773348  0.16136031  0.59083108     0.35900
C3218       C  0.57242992  0.17891691  0.60382336    -0.20100
C3219       C  0.58370341  0.21421473  0.60482818    -0.25400
C3220       C  0.57694951  0.23119314  0.59370038     0.27300
H3221       H  0.53883658  0.16453416  0.56992073     0.13100
N3222       N  0.54693789  0.12553781  0.58946653    -0.82600
H3223       H  0.59454695  0.22762772  0.61487972     0.17900
N3224       N  0.58509475  0.26618032  0.59548610    -0.81200
H3225       H  0.53606191  0.11620531  0.57933512     0.33600
H3226       H  0.56896388  0.12353252  0.59006324     0.38100
H3227       H  0.59657250  0.27572486  0.60551092     0.33500
H3228       H  0.60346194  0.28105597  0.58772736     0.30200
H3229       H  0.60700821  0.26057977  0.54554117     0.33500
H3230       H  0.61309453  0.27005722  0.56312878     0.30200
H3231       H  0.45368578  0.23055561  0.56065382     0.38100
H3232       H  0.44787490  0.19935373  0.57209997     0.33600
C3233       C  0.30511986  0.37304605  0.49348297    -0.20200
C3234       C  0.28124160  0.33821037  0.49693869     0.36000
C3235       C  0.29295675  0.31477674  0.49875211    -0.26200
C3236       C  0.32782175  0.32532470  0.49709484     0.02500
C3237       C  0.35166662  0.35999461  0.49390736     0.27300
C3238       C  0.34016723  0.38339172  0.49223416    -0.25300
N3239       N  0.24518493  0.32639732  0.49817613    -0.82700
H3240       H  0.27470689  0.28792602  0.50095219     0.13100
C3241       C  0.33906753  0.29963432  0.49671711     0.02400
N3242       N  0.38733879  0.37094977  0.49168678    -0.81200
H3243       H  0.35885513  0.40988467  0.48965616     0.17900
C3244       C  0.33861504  0.28474270  0.48340631    -0.26100
C3245       C  0.35677492  0.26742422  0.48137253     0.35900
C3246       C  0.37562642  0.26487827  0.49288598    -0.20100
C3247       C  0.37355657  0.27697383  0.50656929    -0.25400
C3248       C  0.35527272  0.29437038  0.50861653     0.27300
H3249       H  0.32601639  0.28873323  0.47432311     0.13100
N3250       N  0.35824687  0.25446575  0.46739237    -0.82600
H3251       H  0.38824318  0.27511291  0.51537064     0.17900
N3252       N  0.35396066  0.30755759  0.52256020    -0.81200
H3253       H  0.34340915  0.25876395  0.45999719     0.33600
H3254       H  0.34705979  0.22778466  0.46826527     0.38100
H3255       H  0.36690640  0.30122842  0.53015304     0.33500
H3256       H  0.36714553  0.33439539  0.52198019     0.30200
H3257       H  0.40137088  0.39698794  0.48889276     0.33500
H3258       H  0.39736787  0.36870655  0.50147897     0.30200
H3259       H  0.23636310  0.32780147  0.48794389     0.38100
H3260       H  0.23142025  0.30046648  0.50115218     0.33600
C3261       C  0.35936251  0.10292914  0.49161879    -0.20200
C3262       C  0.33985580  0.09082924  0.47881299     0.36000
C3263       C  0.31667841  0.05510662  0.47706691    -0.26200
C3264       C  0.31231223  0.03180294  0.48802174     0.02500
C3265       C  0.33010457  0.04430616  0.50112035     0.27300
C3266       C  0.35353658  0.07957378  0.50273143    -0.25300
N3267       N  0.34521984  0.11435594  0.46734378    -0.82700
H3268       H  0.30307255  0.04528847  0.46698573     0.13100
C3269       C  0.29351751  0.99413949  0.48536544     0.02400
N3270       N  0.32556215  0.02071922  0.51247201    -0.81200
H3271       H  0.36823269  0.08884307  0.51261096     0.17900
C3272       C  0.31321790  0.97915314  0.48199844    -0.26100
C3273       C  0.29974513  0.94369199  0.48361706     0.35900
C3274       C  0.26580346  0.92270943  0.48879007    -0.20100
C3275       C  0.24477412  0.93704487  0.49059829    -0.25400
C3276       C  0.25849829  0.97285012  0.48901493     0.27300
H3277       H  0.34002951  0.99560056  0.47908556     0.13100
N3278       N  0.32096937  0.92905526  0.48074054    -0.82600
H3279       H  0.21858098  0.92087395  0.49433910     0.17900
N3280       N  0.23755994  0.98783578  0.49169910    -0.81200
H3281       H  0.34538490  0.94796750  0.47722086     0.33600
H3282       H  0.30968618  0.91159697  0.47224479     0.38100
H3283       H  0.21236035  0.96867457  0.49415003     0.33500
H3284       H  0.24723017  0.00344467  0.50083485     0.30200
H3285       H  0.34111160  0.03388802  0.52129698     0.33500
H3286       H  0.30011016  0.00933547  0.51603029     0.30200
H3287       H  0.33666325  0.13066651  0.47096287     0.38100
H3288       H  0.32992696  0.10111465  0.45846797     0.33600
C3289       C  0.16138134  0.98179322  0.21340459    -0.20200
C3290       C  0.16708170  0.97351184  0.22734301     0.36000
C3291       C  0.17244385  0.99608771  0.23884941    -0.26200
C3292       C  0.17318977  0.02722270  0.23655064     0.02500
C3293       C  0.16542660  0.03446321  0.22277357     0.27300
C3294       C  0.15904470  0.01136129  0.21136936    -0.25300
N3295       N  0.16936215  0.94324083  0.22954481    -0.82700
H3296       H  0.17854100  0.99062924  0.24943649     0.13100
C3297       C  0.18720593  0.05387126  0.24807393     0.02400
N3298       N  0.16601624  0.06616492  0.22027559    -0.81200
H3299       H  0.15536967  0.01805757  0.20058267     0.17900
C3300       C  0.21976210  0.08326860  0.24605416    -0.26100
C3301       C  0.23745541  0.10564124  0.25757259     0.35900
C3302       C  0.22196442  0.09891182  0.27129019    -0.20100
C3303       C  0.18813192  0.07125124  0.27298522    -0.25400
C3304       C  0.17074742  0.04835963  0.26153582     0.27300
H3305       H  0.23236797  0.08745032  0.23569652     0.13100
N3306       N  0.27190975  0.13402687  0.25565156    -0.82600
H3307       H  0.17648048  0.06563793  0.28359384     0.17900
N3308       N  0.13725557  0.01859097  0.26369550    -0.81200
H3309       H  0.27985536  0.13521297  0.24498041     0.33600
H3310       H  0.27150175  0.15663873  0.25758740     0.38100
H3311       H  0.12892648  0.01790052  0.27426838     0.33500
H3312       H  0.12008487  0.02110596  0.25699774     0.30200
H3313       H  0.16046914  0.06798363  0.20949795     0.33500
H3314       H  0.14629251  0.06555430  0.22641575     0.30200
H3315       H  0.14530040  0.92192044  0.22712008     0.38100
H3316       H  0.17412674  0.94098669  0.24038211     0.33600
C3317       C  0.43830456  0.43773724  0.32702850    -0.20200
C3318       C  0.42518448  0.41324881  0.33817573     0.36000
C3319       C  0.41614663  0.37917571  0.33539441    -0.26200
C3320       C  0.41952984  0.36870162  0.32156912     0.02500
C3321       C  0.43389137  0.39335068  0.31044625     0.27300
C3322       C  0.44356156  0.42787346  0.31333126    -0.25300
N3323       N  0.42074557  0.42290155  0.35236606    -0.82700
H3324       H  0.40496714  0.36039296  0.34397799     0.13100
C3325       C  0.40383469  0.33117292  0.31889130     0.02400
N3326       N  0.43778047  0.38303109  0.29625950    -0.81200
H3327       H  0.45372211  0.44671512  0.30474744     0.17900
C3328       C  0.37390904  0.31442155  0.31050047    -0.26100
C3329       C  0.35191914  0.27855001  0.31132927     0.35900
C3330       C  0.36049027  0.25908827  0.32047120    -0.20100
C3331       C  0.39238192  0.27534157  0.32751578    -0.25400
C3332       C  0.41403025  0.31136787  0.32693635     0.27300
H3333       H  0.36610533  0.32964445  0.30432557     0.13100
N3334       N  0.31967699  0.26200314  0.30375599    -0.82600
H3335       H  0.39882658  0.26040437  0.33459744     0.17900
N3336       N  0.44513449  0.32823871  0.33526951    -0.81200
H3337       H  0.31689670  0.27992330  0.29769027     0.33600
H3338       H  0.32028806  0.24469363  0.29643625     0.38100
H3339       H  0.44871691  0.31015961  0.34080386     0.33500
H3340       H  0.46566725  0.34066931  0.32806082     0.30200
H3341       H  0.44851246  0.40414378  0.28929856     0.33500
H3342       H  0.45540459  0.37457805  0.29695670     0.30200
H3343       H  0.39481150  0.40761192  0.35517680     0.38100
H3344       H  0.43516804  0.41737310  0.35949883     0.33600
C3345       C  0.47428978  0.03288611  0.32958691    -0.20200
C3346       C  0.44434241  0.02093432  0.33803229     0.36000
C3347       C  0.42829248  0.04054103  0.33899305    -0.26200
C3348       C  0.44143422  0.07175522  0.33159257     0.02500
C3349       C  0.47340401  0.08559076  0.32445311     0.27300
C3350       C  0.48975025  0.06599164  0.32358040    -0.25300
N3351       N  0.42891119  0.98755502  0.34465038    -0.82700
H3352       H  0.40387872  0.03013237  0.34455226     0.13100
C3353       C  0.41791663  0.08517405  0.32897527     0.02400
N3354       N  0.48797003  0.11837201  0.31738817    -0.81200
H3355       H  0.51268552  0.07509848  0.31706003     0.17900
C3356       C  0.42190444  0.11413727  0.33634399    -0.26100
C3357       C  0.39822288  0.12553858  0.33442602     0.35900
C3358       C  0.36988996  0.10731901  0.32495115    -0.20100
C3359       C  0.36650921  0.07854649  0.31754335    -0.25400
C3360       C  0.39012572  0.06743359  0.31940825     0.27300
H3361       H  0.44324878  0.12754597  0.34373729     0.13100
N3362       N  0.40236568  0.15472467  0.34241091    -0.82600
H3363       H  0.34522739  0.06447539  0.31018287     0.17900
N3364       N  0.38579307  0.03775487  0.31173851    -0.81200
H3365       H  0.42293862  0.16347717  0.34960503     0.33600
H3366       H  0.40915851  0.17472218  0.33508244     0.38100
H3367       H  0.36378709  0.02719996  0.30528264     0.33500
H3368       H  0.40675465  0.04602568  0.30477407     0.30200
H3369       H  0.51158406  0.12492843  0.31268807     0.33500
H3370       H  0.47151726  0.11593331  0.30897756     0.30200
H3371       H  0.44625944  0.98836942  0.35230281     0.38100
H3372       H  0.40659795  0.98215073  0.35024218     0.33600
C3373       C  0.33627187  0.18363994  0.37331159    -0.20200
C3374       C  0.34033798  0.15797232  0.38020844     0.36000
C3375       C  0.35562167  0.16459956  0.39394389    -0.26200
C3376       C  0.36724837  0.19633109  0.40083425     0.02500
C3377       C  0.36333736  0.22193000  0.39393321     0.27300
C3378       C  0.34791088  0.21530888  0.38029071    -0.25300
N3379       N  0.32795480  0.12493719  0.37354195    -0.82700
H3380       H  0.35877848  0.14505191  0.39927092     0.13100
C3381       C  0.38367333  0.20279887  0.41525532     0.02400
N3382       N  0.37474849  0.25446771  0.40090009    -0.81200
H3383       H  0.34496021  0.23508405  0.37505708     0.17900
C3384       C  0.41725875  0.23057446  0.41700250    -0.26100
C3385       C  0.43297824  0.23952485  0.43061329     0.35900
C3386       C  0.41460037  0.22017677  0.44286873    -0.20100
C3387       C  0.38142593  0.19140276  0.44094948    -0.25400
C3388       C  0.36571961  0.18264309  0.42730442     0.27300
H3389       H  0.43115033  0.24561789  0.40766011     0.13100
N3390       N  0.46745394  0.26828194  0.43196672    -0.82600
H3391       H  0.36707286  0.17642310  0.45021243     0.17900
N3392       N  0.33125828  0.15400767  0.42571081    -0.81200
H3393       H  0.47688265  0.28010879  0.42199518     0.33600
H3394       H  0.48309332  0.25865617  0.43522163     0.38100
H3395       H  0.32168532  0.14175318  0.43559677     0.33500
H3396       H  0.31567448  0.16376675  0.42254211     0.30200
H3397       H  0.37025782  0.27058724  0.39435314     0.33500
H3398       H  0.35981251  0.24977758  0.41016145     0.30200
H3399       H  0.34416423  0.12843714  0.36485705     0.38100
H3400       H  0.33025098  0.10819499  0.38059436     0.33600
C3401       C  0.76509173  0.56760066  0.55053369    -0.20200
C3402       C  0.77086290  0.58420424  0.56396748     0.36000
C3403       C  0.74948839  0.56625106  0.57566563    -0.26200
C3404       C  0.72208835  0.53232931  0.57408009     0.02500
C3405       C  0.71819229  0.51468924  0.56097796     0.27300
C3406       C  0.74008717  0.53248656  0.54939956    -0.25300
N3407       N  0.79700182  0.61984079  0.56538922    -0.82700
H3408       H  0.75246264  0.57961144  0.58575531     0.13100
C3409       C  0.69482087  0.51916423  0.58519630     0.02400
N3410       N  0.69111213  0.47967693  0.55874869    -0.81200
H3411       H  0.73527797  0.51964733  0.53905601     0.17900
C3412       C  0.66781519  0.52564723  0.58340582    -0.26100
C3413       C  0.64565266  0.52128773  0.59486602     0.35900
C3414       C  0.65020463  0.50947906  0.60824555    -0.20100
C3415       C  0.67528643  0.49998328  0.60961440    -0.25400
C3416       C  0.69805703  0.50522153  0.59822605     0.27300
H3417       H  0.66554244  0.53638034  0.57332496     0.13100
N3418       N  0.61983167  0.53068060  0.59327034    -0.82600
H3419       H  0.67918363  0.49149479  0.61997859     0.17900
N3420       N  0.72567681  0.49850619  0.60009244    -0.81200
H3421       H  0.62016696  0.53944569  0.58282635     0.33600
H3422       H  0.59586283  0.50837415  0.59465556     0.38100
H3423       H  0.72495988  0.48902118  0.61042892     0.33500
H3424       H  0.72161721  0.47899172  0.59286909     0.30200
H3425       H  0.70268284  0.46521070  0.55641496     0.33500
H3426       H  0.67675635  0.46913181  0.56811646     0.30200
H3427       H  0.82074051  0.62170887  0.56356003     0.38100
H3428       H  0.79763206  0.62841158  0.57591513     0.33600
C3429       C  0.09838881  0.77874508  0.49089762    -0.20200
C3430       C  0.07356556  0.76119836  0.48009233     0.36000
C3431       C  0.03951464  0.75308296  0.48223130    -0.26200
C3432       C  0.02943404  0.76186220  0.49507772     0.02500
C3433       C  0.05442776  0.78066160  0.50570590     0.27300
C3434       C  0.08883654  0.78926481  0.50345092    -0.25300
N3435       N  0.08286296  0.75144760  0.46690774    -0.82700
H3436       H  0.02049581  0.73854792  0.47402756     0.13100
C3437       C  0.99203092  0.74738462  0.49771328     0.02400
N3438       N  0.04455310  0.79020749  0.51883889    -0.81200
H3439       H  0.10788679  0.80291540  0.51174818     0.17900
C3440       C  0.97587902  0.72223451  0.50840929    -0.26100
C3441       C  0.93986354  0.70111970  0.50882716     0.35900
C3442       C  0.91962944  0.70562076  0.49849543    -0.20100
C3443       C  0.93554958  0.73328054  0.48883398    -0.25400
C3444       C  0.97168960  0.75406465  0.48825105     0.27300
H3445       H  0.99149474  0.71715864  0.51569167     0.13100
N3446       N  0.92376303  0.67335351  0.51899099    -0.82600
H3447       H  0.92004447  0.73646968  0.48078605     0.17900
N3448       N  0.98793246  0.78050236  0.47753331    -0.81200
H3449       H  0.94218304  0.67304039  0.52569015     0.33600
H3450       H  0.90792440  0.67817481  0.52560688     0.38100
H3451       H  0.96944206  0.78189041  0.47128528     0.33500
H3452       H  0.00173934  0.80403348  0.48293177     0.30200
H3453       H  0.06585536  0.80374385  0.52558334     0.33500
H3454       H  0.03607350  0.80715016  0.51615937     0.30200
H3455       H  0.06757508  0.72473887  0.46580294     0.38100
H3456       H  0.07712230  0.76280678  0.45839507     0.33600
C3457       C  0.54842365  0.36051364  0.50189605    -0.20200
C3458       C  0.57123523  0.37093921  0.51375897     0.36000
C3459       C  0.59822311  0.40546053  0.51474474    -0.26200
C3460       C  0.60294982  0.42958117  0.50413355     0.02500
C3461       C  0.57988198  0.41942067  0.49250122     0.27300
C3462       C  0.55290872  0.38512142  0.49151248    -0.25300
N3463       N  0.56668752  0.34685808  0.52487643    -0.82700
H3464       H  0.61625543  0.41341009  0.52361431     0.13100
C3465       C  0.63376113  0.46464567  0.50458040     0.02400
N3466       N  0.58430883  0.44397901  0.48162955    -0.81200
H3467       H  0.53561511  0.37742347  0.48238528     0.17900
C3468       C  0.65967798  0.47339162  0.49431240    -0.26100
C3469       C  0.68974189  0.50588577  0.49438135     0.35900
C3470       C  0.69416689  0.53053021  0.50489559    -0.20100
C3471       C  0.66749780  0.52199366  0.51489015    -0.25400
C3472       C  0.63757296  0.48941712  0.51486159     0.27300
H3473       H  0.65674332  0.45462177  0.48628008     0.13100
N3474       N  0.71569357  0.51357515  0.48375341    -0.82600
H3475       H  0.67033707  0.54029762  0.52312786     0.17900
N3476       N  0.61140364  0.48224614  0.52531167    -0.81200
H3477       H  0.70461138  0.51056707  0.47358281     0.33600
H3478       H  0.72360827  0.49556333  0.48472951     0.38100
H3479       H  0.60779035  0.46157425  0.53165023     0.33500
H3480       H  0.58847299  0.47503562  0.51985789     0.30200
H3481       H  0.56539240  0.43236376  0.47368878     0.33500
H3482       H  0.58063019  0.46272822  0.48654114     0.30200
H3483       H  0.57347273  0.32972850  0.52055811     0.38100
H3484       H  0.58379614  0.35943338  0.53335785     0.33600
C3485       C  0.76199266  0.70553914  0.49404180    -0.20200
C3486       C  0.72714227  0.69618898  0.49589300     0.36000
C3487       C  0.71730929  0.72083229  0.49429098    -0.26200
C3488       C  0.74104060  0.75487507  0.49045615     0.02500
C3489       C  0.77562462  0.76434254  0.48802342     0.27300
C3490       C  0.78581879  0.73965195  0.48990659    -0.25300
N3491       N  0.70125451  0.66152150  0.49928020    -0.82700
H3492       H  0.69064528  0.71321617  0.49612386     0.13100
C3493       C  0.72835876  0.77957442  0.48926712     0.02400
N3494       N  0.80011919  0.79881945  0.48359872    -0.81200
H3495       H  0.81250971  0.74721038  0.48828886     0.17900
C3496       C  0.74021439  0.80741399  0.49891558    -0.26100
C3497       C  0.72248224  0.82553944  0.50056056     0.35900
C3498       C  0.69271865  0.81578437  0.49229308    -0.20100
C3499       C  0.68280135  0.79006286  0.48181037    -0.25400
C3500       C  0.70034470  0.77197634  0.48016782     0.27300
H3501       H  0.76165395  0.81325432  0.50593541     0.13100
N3502       N  0.73282061  0.85180431  0.51137391    -0.82600
H3503       H  0.65968736  0.78234026  0.47559655     0.17900
N3504       N  0.68856532  0.74441053  0.46988317    -0.81200
H3505       H  0.75478616  0.85551113  0.51674304     0.33600
H3506       H  0.73978203  0.87488944  0.50609947     0.38100
H3507       H  0.66733603  0.74162856  0.46419496     0.33500
H3508       H  0.70826949  0.75130579  0.46236836     0.30200
H3509       H  0.82439676  0.80163754  0.48219213     0.33500
H3510       H  0.79244762  0.80270112  0.47350416     0.30200
H3511       H  0.68952443  0.66178049  0.50895805     0.38100
H3512       H  0.68261193  0.65254875  0.49117310     0.33600
C3513       C  0.89946358  0.84523893  0.27248204    -0.20200
C3514       C  0.90951783  0.88038968  0.27333416     0.36000
C3515       C  0.90263613  0.89588377  0.26169243    -0.26200
C3516       C  0.88629803  0.87686646  0.24929478     0.02500
C3517       C  0.87962146  0.84287697  0.24786836     0.27300
C3518       C  0.88614296  0.82730983  0.25954672    -0.25300
N3519       N  0.92332857  0.89907633  0.28654208    -0.82700
H3520       H  0.90777391  0.92201176  0.26266876     0.13100
C3521       C  0.87100679  0.89019492  0.23896430     0.02400
N3522       N  0.86443128  0.82372037  0.23487169    -0.81200
H3523       H  0.87819544  0.80027703  0.25899249     0.17900
C3524       C  0.88913241  0.90742777  0.22653838    -0.26100
C3525       C  0.87247337  0.91382476  0.21520664     0.35900
C3526       C  0.83700989  0.90237995  0.21639788    -0.20100
C3527       C  0.81983508  0.88782473  0.22936138    -0.25400
C3528       C  0.83652235  0.88169189  0.24069829     0.27300
H3529       H  0.91565260  0.91396490  0.22533355     0.13100
N3530       N  0.89047616  0.92870691  0.20197532    -0.82600
H3531       H  0.79259970  0.87879364  0.23020079     0.17900
N3532       N  0.81812732  0.86528950  0.25369547    -0.81200
H3533       H  0.91585075  0.93405739  0.20258921     0.33600
H3534       H  0.89183268  0.95235698  0.20073892     0.38100
H3535       H  0.79317919  0.86119888  0.25333461     0.33500
H3536       H  0.81554739  0.84096007  0.25423606     0.30200
H3537       H  0.86159972  0.79928510  0.23550083     0.33500
H3538       H  0.83963700  0.81984814  0.23399085     0.30200
H3539       H  0.94720586  0.90117098  0.28821788     0.38100
H3540       H  0.92799046  0.92418155  0.28562027     0.33600
C3541       C  0.03125683  0.63903893  0.31994196    -0.20200
C3542       C  0.03984594  0.67283492  0.31610908     0.36000
C3543       C  0.01428486  0.68180907  0.31624710    -0.26200
C3544       C  0.98017556  0.65771595  0.31981808     0.02500
C3545       C  0.97074347  0.62312807  0.32217646     0.27300
C3546       C  0.99645359  0.61409511  0.32220687    -0.25300
N3547       N  0.07465026  0.69816356  0.31238273    -0.82700
H3548       H  0.02126656  0.70820923  0.31417439     0.13100
C3549       C  0.95669863  0.67092990  0.32301083     0.02400
N3550       N  0.93530391  0.59745542  0.32458639    -0.81200
H3551       H  0.98953356  0.58793445  0.32475272     0.17900
C3552       C  0.94138486  0.67913101  0.31173264    -0.26100
C3553       C  0.92609597  0.69932820  0.31424608     0.35900
C3554       C  0.92667425  0.71176455  0.32826717    -0.20100
C3555       C  0.94010028  0.70164336  0.33960643    -0.25400
C3556       C  0.95521200  0.68155638  0.33714157     0.27300
H3557       H  0.94308093  0.67137976  0.30085805     0.13100
N3558       N  0.91252925  0.70942099  0.30249211    -0.82600
H3559       H  0.94050430  0.71114196  0.35037943     0.17900
N3560       N  0.97169687  0.67439666  0.34874754    -0.81200
H3561       H  0.91528313  0.69920819  0.29280677     0.33600
H3562       H  0.88609758  0.69835146  0.30420965     0.38100
H3563       H  0.96980617  0.68550352  0.35833724     0.33500
H3564       H  0.95828357  0.64784107  0.35043867     0.30200
H3565       H  0.93268231  0.57323964  0.32592359     0.33500
H3566       H  0.92737057  0.60318141  0.33423213     0.30200
H3567       H  0.08085766  0.68982514  0.30294651     0.38100
H3568       H  0.07664611  0.72172616  0.30996309     0.33600
C3569       C  0.58403626  0.59609127  0.32533047    -0.20200
C3570       C  0.59686680  0.59852516  0.33939203     0.36000
C3571       C  0.63263029  0.61302485  0.34142869    -0.26200
C3572       C  0.65528957  0.62393731  0.32962501     0.02500
C3573       C  0.64183040  0.61790466  0.31554815     0.27300
C3574       C  0.60640655  0.60428977  0.31355607    -0.25300
N3575       N  0.57404916  0.58875267  0.35153415    -0.82700
H3576       H  0.64309643  0.61773223  0.35223193     0.13100
C3577       C  0.69263266  0.64831613  0.33182862     0.02400
N3578       N  0.66450275  0.62754460  0.30333317    -0.81200
H3579       H  0.59639610  0.60177599  0.30273956     0.17900
C3580       C  0.71674257  0.63769468  0.33002419    -0.26100
C3581       C  0.75240166  0.66201436  0.32930724     0.35900
C3582       C  0.76380700  0.69756809  0.33005518    -0.20100
C3583       C  0.73955677  0.70766706  0.33275207    -0.25400
C3584       C  0.70426014  0.68356203  0.33357619     0.27300
H3585       H  0.70761502  0.61055365  0.32861050     0.13100
N3586       N  0.77663635  0.65080133  0.32697116    -0.82600
H3587       H  0.74806196  0.73479280  0.33360852     0.17900
N3588       N  0.67992298  0.69486541  0.33551750    -0.81200
H3589       H  0.76386285  0.62400383  0.32602226     0.33600
H3590       H  0.79190097  0.65704327  0.33620265     0.38100
H3591       H  0.69262700  0.72157697  0.33681402     0.33500
H3592       H  0.66548990  0.68928972  0.32606299     0.30200
H3593       H  0.65047778  0.62095080  0.29373582     0.33500
H3594       H  0.68013776  0.65434787  0.30334449     0.30200
H3595       H  0.55713046  0.56217987  0.35089021     0.38100
H3596       H  0.58775544  0.59313714  0.36113102     0.33600
C3597       C  0.87870741  0.74936259  0.37728747    -0.20200
C3598       C  0.84429586  0.72467639  0.38102610     0.36000
C3599       C  0.83701558  0.71037716  0.39495116    -0.26200
C3600       C  0.86315273  0.72036093  0.40519066     0.02500
C3601       C  0.89708560  0.74558953  0.40171454     0.27300
C3602       C  0.90452352  0.75978396  0.38785912    -0.25300
N3603       N  0.81692235  0.71387107  0.37073905    -0.82700
H3604       H  0.81093584  0.69096208  0.39779526     0.13100
C3605       C  0.85524816  0.70314843  0.41936059     0.02400
N3606       N  0.92394047  0.75629805  0.41225901    -0.81200
H3607       H  0.93094338  0.77869161  0.38528590     0.17900
C3608       C  0.86771486  0.68115073  0.42238812    -0.26100
C3609       C  0.86200952  0.66496303  0.43581788     0.35900
C3610       C  0.84394515  0.67164663  0.44668051    -0.20100
C3611       C  0.83110559  0.69351211  0.44344209    -0.25400
C3612       C  0.83659634  0.70930487  0.42988668     0.27300
H3613       H  0.88185612  0.67646425  0.41413535     0.13100
N3614       N  0.87436717  0.64167363  0.43831236    -0.82600
H3615       H  0.81716468  0.69879508  0.45156748     0.17900
N3616       N  0.82376152  0.73193277  0.42681329    -0.81200
H3617       H  0.88816830  0.64083901  0.42942315     0.33600
H3618       H  0.85286396  0.61696823  0.43932719     0.38100
H3619       H  0.81041650  0.73365021  0.43568127     0.33500
H3620       H  0.84496888  0.75657365  0.42518475     0.30200
H3621       H  0.94762869  0.77488150  0.40797334     0.33500
H3622       H  0.91846026  0.76816153  0.42068809     0.30200
H3623       H  0.81403427  0.73501406  0.36865504     0.38100
H3624       H  0.79356781  0.69479756  0.37509749     0.33600
C3625       C  0.02001144  0.88783885  0.32142484    -0.20200
C3626       C  0.04405556  0.89486337  0.33256404     0.36000
C3627       C  0.07734609  0.92361103  0.33146044    -0.26200
C3628       C  0.08701965  0.94568573  0.31959092     0.02500
C3629       C  0.06301992  0.93908718  0.30854949     0.27300
C3630       C  0.02967065  0.91019835  0.30958583    -0.25300
N3631       N  0.03440696  0.87325152  0.34510461    -0.82700
H3632       H  0.09590143  0.92899210  0.33993256     0.13100
C3633       C  0.12246107  0.97569322  0.31895801     0.02400
N3634       N  0.07260083  0.96186220  0.29640623    -0.81200
H3635       H  0.01121415  0.90500383  0.30109356     0.17900
C3636       C  0.14471024  0.97734181  0.30806208    -0.26100
C3637       C  0.17852845  0.00540260  0.30705744     0.35900
C3638       C  0.19032229  0.03255261  0.31723109    -0.20100
C3639       C  0.16796536  0.03030513  0.32831874    -0.25400
C3640       C  0.13415219  0.00229880  0.32922960     0.27300
H3641       H  0.13549726  0.95664880  0.30024914     0.13100
N3642       N  0.20015634  0.00704399  0.29533944    -0.82600
H3643       H  0.17653246  0.05107818  0.33605723     0.17900
N3644       N  0.11131378  0.00114709  0.34031326    -0.81200
H3645       H  0.18660753  0.98638338  0.28826667     0.33600
H3646       H  0.21980542  0.00406430  0.29969855     0.38100
H3647       H  0.12385062  0.02272073  0.34701193     0.33500
H3648       H  0.09133256  0.00250504  0.33529346     0.30200
H3649       H  0.05205766  0.95330442  0.28920710     0.33500
H3650       H  0.07775546  0.98583748  0.30022196     0.30200
H3651       H  0.01548799  0.87569778  0.35056160     0.38100
H3652       H  0.05517346  0.88184091  0.35218604     0.33600
C3653       C  0.08264745  0.22863864  0.21165825    -0.20200
C3654       C  0.08681007  0.24429338  0.22521674     0.36000
C3655       C  0.06397342  0.22563669  0.23642929    -0.26200
C3656       C  0.03632028  0.19207210  0.23423124     0.02500
C3657       C  0.03291816  0.17576687  0.22080387     0.27300
C3658       C  0.05657740  0.19408432  0.20977011    -0.25300
N3659       N  0.11313007  0.27964258  0.22729537    -0.82700
H3660       H  0.06637470  0.23810713  0.24670534     0.13100
C3661       C  0.00925180  0.17767902  0.24547919     0.02400
N3662       N  0.00532394  0.14139904  0.21781791    -0.81200
H3663       H  0.05275751  0.18213771  0.19926324     0.17900
C3664       C  0.98334372  0.18607549  0.24492041    -0.26100
C3665       C  0.96328945  0.18241327  0.25712172     0.35900
C3666       C  0.96879421  0.16937294  0.26995244    -0.20100
C3667       C  0.99223666  0.15762240  0.27004022    -0.25400
C3668       C  0.01282825  0.16195939  0.25790672     0.27300
H3669       H  0.98072643  0.19812922  0.23531091     0.13100
N3670       N  0.93903112  0.19406250  0.25688526    -0.82600
H3671       H  0.99678932  0.14809432  0.27999959     0.17900
N3672       N  0.03896704  0.15280395  0.25846619    -0.81200
H3673       H  0.93836841  0.20348733  0.24669030     0.33600
H3674       H  0.91462670  0.17263570  0.25868007     0.38100
H3675       H  0.03875153  0.14216382  0.26848300     0.33500
H3676       H  0.03268104  0.13347936  0.25080897     0.30200
H3677       H  0.98983586  0.14300234  0.20986413     0.33500
H3678       H  0.98976213  0.13022445  0.22684005     0.30200
H3679       H  0.13688964  0.28122059  0.22600884     0.38100
H3680       H  0.11248115  0.28751113  0.23783087     0.33600
C3681       C  0.63865841  0.04771542  0.32213116    -0.20200
C3682       C  0.64954876  0.08318374  0.32284149     0.36000
C3683       C  0.68509624  0.10787930  0.32244501    -0.26200
C3684       C  0.70964657  0.09770892  0.32130358     0.02500
C3685       C  0.69872342  0.06258756  0.31979339     0.27300
C3686       C  0.66351766  0.03809679  0.32014045    -0.25300
N3687       N  0.62483576  0.09400230  0.32460381    -0.82700
H3688       H  0.69375318  0.13494919  0.32373857     0.13100
C3689       C  0.74654861  0.12244524  0.32406316     0.02400
N3690       N  0.72366903  0.05181989  0.31882322    -0.81200
H3691       H  0.65555258  0.01109583  0.31935846     0.17900
C3692       C  0.75819691  0.12531823  0.33823656    -0.26100
C3693       C  0.79318326  0.13967800  0.34129907     0.35900
C3694       C  0.81719252  0.15094194  0.32980511    -0.20100
C3695       C  0.80597952  0.15158171  0.31577364    -0.25400
C3696       C  0.77064461  0.13721270  0.31276734     0.27300
H3697       H  0.73969371  0.11427103  0.34694108     0.13100
N3698       N  0.80313990  0.14084969  0.35610595    -0.82600
H3699       H  0.82439468  0.16064403  0.30701063     0.17900
N3700       N  0.75905953  0.13627365  0.29827965    -0.81200
H3701       H  0.79509679  0.15555044  0.36178059     0.33600
H3702       H  0.82983567  0.15394501  0.35724069     0.38100
H3703       H  0.78004442  0.14843206  0.29126990     0.33500
H3704       H  0.74482091  0.11055379  0.29503113     0.30200
H3705       H  0.71151388  0.02499769  0.31829958     0.33500
H3706       H  0.73699667  0.06114497  0.30913103     0.30200
H3707       H  0.61363004  0.08586677  0.33476945     0.38100
H3708       H  0.63707219  0.12085903  0.32462188     0.33600
C3709       C  0.97059532  0.30740562  0.33026704    -0.20200
C3710       C  0.00532904  0.33335046  0.33243523     0.36000
C3711       C  0.01398178  0.36784877  0.33372422    -0.26200
C3712       C  0.98880145  0.37724419  0.33313359     0.02500
C3713       C  0.95390782  0.35126235  0.33183018     0.27300
C3714       C  0.94511333  0.31654568  0.33046803    -0.25300
N3715       N  0.03182459  0.32465553  0.33313832    -0.82700
H3716       H  0.04079089  0.38775979  0.33471730     0.13100
C3717       C  0.00034277  0.41462083  0.33255468     0.02400
N3718       N  0.92769556  0.36033733  0.33161061    -0.81200
H3719       H  0.91844293  0.29676327  0.32893588     0.17900
C3720       C  0.99366073  0.42788117  0.32010809    -0.26100
C3721       C  0.01159387  0.46352248  0.31736852     0.35900
C3722       C  0.03636251  0.48621553  0.32731398    -0.20100
C3723       C  0.04059720  0.47331537  0.34037116    -0.25400
C3724       C  0.02269309  0.43768523  0.34312493     0.27300
H3725       H  0.97654976  0.41026617  0.31197372     0.13100
N3726       N  0.00691725  0.47661841  0.30400096    -0.82600
H3727       H  0.05995054  0.49080269  0.34790965     0.17900
N3728       N  0.02859220  0.42460504  0.35622717    -0.81200
H3729       H  0.98823984  0.45660376  0.29770489     0.33600
H3730       H  0.99736909  0.49282662  0.30644932     0.38100
H3731       H  0.04602569  0.44481943  0.36280157     0.33500
H3732       H  0.00528794  0.41199780  0.36183880     0.30200
H3733       H  0.90337382  0.33831378  0.33053844     0.33500
H3734       H  0.92802269  0.37115310  0.34161835     0.30200
H3735       H  0.02712104  0.30938030  0.34227283     0.38100
H3736       H  0.05596048  0.34671112  0.33461586     0.33600
C3737       C  0.88759349  0.04743718  0.31838700    -0.20200
C3738       C  0.86191619  0.02059107  0.32696581     0.36000
C3739       C  0.85887516  0.98800536  0.32690706    -0.26200
C3740       C  0.87997114  0.98115253  0.31820037     0.02500
C3741       C  0.90388866  0.00687560  0.30890830     0.27300
C3742       C  0.90780385  0.03987940  0.30923731    -0.25300
N3743       N  0.83941397  0.02644296  0.33594734    -0.82700
H3744       H  0.83992196  0.96771769  0.33372178     0.13100
C3745       C  0.87606913  0.94654475  0.31878462     0.02400
N3746       N  0.92357239  0.99918577  0.29899372    -0.81200
H3747       H  0.92693187  0.05984174  0.30236784     0.17900
C3748       C  0.85006863  0.91981365  0.31069608    -0.26100
C3749       C  0.84561308  0.88661176  0.31078886     0.35900
C3750       C  0.86808979  0.88013137  0.31908470    -0.20100
C3751       C  0.89356082  0.90697023  0.32749482    -0.25400
C3752       C  0.89744819  0.93980879  0.32754741     0.27300
H3753       H  0.83340112  0.92503722  0.30415329     0.13100
N3754       N  0.81946491  0.86009643  0.30190839    -0.82600
H3755       H  0.91098453  0.90256692  0.33390337     0.17900
N3756       N  0.92323828  0.96587067  0.33660884    -0.81200
H3757       H  0.80715403  0.86990656  0.29567664     0.33600
H3758       H  0.80066121  0.84192483  0.30878091     0.38100
H3759       H  0.91119087  0.97455015  0.34365901     0.33500
H3760       H  0.94040234  0.98655038  0.33020135     0.30200
H3761       H  0.93939591  0.02067077  0.29265764     0.33500
H3762       H  0.93988934  0.99384198  0.30495205     0.30200
H3763       H  0.82304453  0.02995616  0.32913620     0.38100
H3764       H  0.82353099  0.00465230  0.34211744     0.33600
C3765       C  0.03737152  0.19632781  0.31889594    -0.20200
C3766       C  0.06763033  0.21565110  0.31065156     0.36000
C3767       C  0.09490092  0.20944571  0.31225350    -0.26200
C3768       C  0.09256347  0.18459941  0.32190838     0.02500
C3769       C  0.06293508  0.16594785  0.33042127     0.27300
C3770       C  0.03553975  0.17197074  0.32881974    -0.25300
N3771       N  0.06984638  0.23996132  0.30009939    -0.82700
H3772       H  0.11794911  0.22365374  0.30579308     0.13100
C3773       C  0.12142789  0.17826227  0.32280401     0.02400
N3774       N  0.06066432  0.14068952  0.34046742    -0.81200
H3775       H  0.01228012  0.15698241  0.33507380     0.17900
C3776       C  0.14618402  0.19487101  0.33351872    -0.26100
C3777       C  0.17519466  0.19134156  0.33414094     0.35900
C3778       C  0.17959836  0.17074709  0.32383463    -0.20100
C3779       C  0.15409213  0.15329461  0.31334010    -0.25400
C3780       C  0.12504872  0.15701825  0.31269163     0.27300
H3781       H  0.14317881  0.21103260  0.34133212     0.13100
N3782       N  0.19989168  0.20845006  0.34537873    -0.82600
H3783       H  0.15717422  0.13735569  0.30544601     0.17900
N3784       N  0.09952565  0.13991228  0.30167547    -0.81200
H3785       H  0.18726855  0.19992754  0.35526922     0.33600
H3786       H  0.20915219  0.23484917  0.34458949     0.38100
H3787       H  0.10618906  0.12557014  0.29497299     0.33500
H3788       H  0.07649715  0.12232657  0.30674374     0.30200
H3789       H  0.03718937  0.12936140  0.34596194     0.33500
H3790       H  0.06087600  0.12106336  0.33455480     0.30200
H3791       H  0.07126011  0.26080360  0.30565495     0.38100
H3792       H  0.09270599  0.24985702  0.29421838     0.33600
C3793       C  0.82801013  0.31454361  0.54566351    -0.20200
C3794       C  0.81797386  0.33938704  0.54432865     0.36000
C3795       C  0.82337881  0.36169682  0.55592568    -0.26200
C3796       C  0.83814897  0.35919702  0.56877617     0.02500
C3797       C  0.84475448  0.33205757  0.57061835     0.27300
C3798       C  0.83960899  0.30996886  0.55900472    -0.25300
N3799       N  0.80578747  0.34421988  0.53074971    -0.82700
H3800       H  0.81830340  0.38255417  0.55462156     0.13100
C3801       C  0.85215973  0.38798242  0.57923882     0.02400
N3802       N  0.85892406  0.32856132  0.58393254    -0.81200
H3803       H  0.84750282  0.29105081  0.55995934     0.17900
C3804       C  0.83781250  0.38253925  0.59303557    -0.26100
C3805       C  0.85556689  0.40584958  0.60425180     0.35900
C3806       C  0.88844003  0.43479805  0.60158440    -0.20100
C3807       C  0.90133280  0.44175467  0.58750119    -0.25400
C3808       C  0.88333881  0.41867693  0.57623241     0.27300
H3809       H  0.81390408  0.35890415  0.59526380     0.13100
N3810       N  0.84203803  0.39839597  0.61865462    -0.82600
H3811       H  0.92673293  0.46371333  0.58553973     0.17900
N3812       N  0.89771600  0.42507869  0.56196550    -0.81200
H3813       H  0.81838504  0.37533464  0.61894506     0.33600
H3814       H  0.83721267  0.41782686  0.62169396     0.38100
H3815       H  0.92055815  0.44890199  0.56152842     0.33500
H3816       H  0.90424082  0.40642073  0.55967725     0.30200
H3817       H  0.86207337  0.30717413  0.58355801     0.33500
H3818       H  0.88351851  0.35015313  0.58509159     0.30200
H3819       H  0.78201859  0.32212692  0.52871276     0.38100
H3820       H  0.80124878  0.36470906  0.53134506     0.33600
C3821       C  0.71106209  0.97926058  0.49567306    -0.20200
C3822       C  0.72189064  0.00339391  0.48437073     0.36000
C3823       C  0.74691379  0.03785121  0.48701382    -0.26200
C3824       C  0.76100440  0.04892286  0.50077444     0.02500
C3825       C  0.75106224  0.02471078  0.51201868     0.27300
C3826       C  0.72641630  0.98983903  0.50930645    -0.25300
N3827       N  0.70678584  0.99286606  0.47030275    -0.82700
H3828       H  0.75436691  0.05658368  0.47843810     0.13100
C3829       C  0.78235426  0.08658513  0.50327859     0.02400
N3830       N  0.76528293  0.03584077  0.52616898    -0.81200
H3831       H  0.71796015  0.97125814  0.51798170     0.17900
C3832       C  0.76746945  0.10292568  0.51062242    -0.26100
C3833       C  0.78095302  0.13844958  0.50919198     0.35900
C3834       C  0.81017227  0.15817190  0.50048924    -0.20100
C3835       C  0.82755978  0.14253312  0.49464735    -0.25400
C3836       C  0.81366385  0.10671170  0.49585200     0.27300
H3837       H  0.74350712  0.08764582  0.51640356     0.13100
N3838       N  0.76367068  0.15414218  0.51585189    -0.82600
H3839       H  0.85001248  0.15756912  0.48795484     0.17900
N3840       N  0.82981718  0.09027717  0.48875942    -0.81200
H3841       H  0.76282733  0.14986680  0.52694247     0.33600
H3842       H  0.73837430  0.14177706  0.51204017     0.38100
H3843       H  0.85238237  0.10854385  0.48359488     0.33500
H3844       H  0.83716100  0.07896235  0.49672335     0.30200
H3845       H  0.75514462  0.01495711  0.53325160     0.33500
H3846       H  0.79169467  0.04516095  0.52547857     0.30200
H3847       H  0.71346167  0.97539900  0.46627292     0.38100
H3848       H  0.71723703  0.01377676  0.46323161     0.33600
C3849       C  0.71497973  0.24076238  0.49312956    -0.20200
C3850       C  0.69186491  0.22493445  0.48149323     0.36000
C3851       C  0.65867429  0.21995925  0.48232469    -0.26200
C3852       C  0.64816599  0.23065678  0.49440438     0.02500
C3853       C  0.67115631  0.24711917  0.50590867     0.27300
C3854       C  0.70456189  0.25221121  0.50513243    -0.25300
N3855       N  0.70222843  0.21419301  0.46880370    -0.82700
H3856       H  0.64079148  0.20762366  0.47351006     0.13100
C3857       C  0.61269478  0.22402920  0.49480436     0.02400
N3858       N  0.66015696  0.25774455  0.51843050    -0.81200
H3859       H  0.72217139  0.26433338  0.51404477     0.17900
C3860       C  0.58654384  0.19290453  0.50048455    -0.26100
C3861       C  0.55249037  0.18591701  0.50136061     0.35900
C3862       C  0.54482423  0.21110283  0.49667280    -0.20100
C3863       C  0.57094752  0.24130780  0.49011426    -0.25400
C3864       C  0.60478353  0.24799384  0.48913211     0.27300
H3865       H  0.59289986  0.17422917  0.50441520     0.13100
N3866       N  0.52624416  0.15409585  0.50753792    -0.82600
H3867       H  0.56524797  0.26046306  0.48620507     0.17900
N3868       N  0.63119261  0.27907495  0.48249821    -0.81200
H3869       H  0.53666459  0.13931289  0.51103155     0.33600
H3870       H  0.50893584  0.13997369  0.49931556     0.38100
H3871       H  0.62097565  0.29377376  0.47866703     0.33500
H3872       H  0.64906049  0.29383189  0.49044361     0.30200
H3873       H  0.67996127  0.26891388  0.52602500     0.33500
H3874       H  0.65513919  0.27696759  0.51527183     0.30200
H3875       H  0.72179965  0.23631194  0.46383781     0.38100
H3876       H  0.68203294  0.20259895  0.46139976     0.33600
C3877       C  0.86352763  0.38060337  0.49883973    -0.20200
C3878       C  0.84732017  0.38531537  0.48681695     0.36000
C3879       C  0.84243284  0.41365888  0.48636999    -0.26200
C3880       C  0.85257806  0.43681793  0.49795127     0.02500
C3881       C  0.86914670  0.43246277  0.50989469     0.27300
C3882       C  0.87483718  0.40465390  0.51014235    -0.25300
N3883       N  0.83549979  0.36120408  0.47513714    -0.82700
H3884       H  0.82982797  0.41708149  0.47714028     0.13100
C3885       C  0.84566261  0.46554487  0.49759115     0.02400
N3886       N  0.87938492  0.45590190  0.52186157    -0.81200
H3887       H  0.88648731  0.40069800  0.51957756     0.17900
C3888       C  0.82160659  0.46554048  0.50717561    -0.26100
C3889       C  0.81556598  0.49321903  0.50765814     0.35900
C3890       C  0.83444365  0.52171802  0.49842314    -0.20100
C3891       C  0.85827361  0.52124024  0.48874267    -0.25400
C3892       C  0.86411168  0.49356125  0.48826319     0.27300
H3893       H  0.80762955  0.44384856  0.51435729     0.13100
N3894       N  0.79125204  0.49280622  0.51778679    -0.82600
H3895       H  0.87266484  0.54272149  0.48151015     0.17900
N3896       N  0.88910834  0.49401004  0.47851274    -0.81200
H3897       H  0.78167290  0.47122678  0.52446221     0.33600
H3898       H  0.77020948  0.48992206  0.51191979     0.38100
H3899       H  0.90040246  0.51645752  0.47231982     0.33500
H3900       H  0.90880644  0.49477314  0.48469890     0.30200
H3901       H  0.89063605  0.44875982  0.52993168     0.33500
H3902       H  0.89838928  0.48011665  0.51819758     0.30200
H3903       H  0.80902723  0.35106634  0.47399714     0.38100
H3904       H  0.84751819  0.37459599  0.46571201     0.33600
C3905       C  0.97169272  0.31041374  0.49120206    -0.20200
C3906       C  0.99787575  0.34511557  0.48911748     0.36000
C3907       C  0.03201342  0.35318542  0.48711080    -0.26200
C3908       C  0.04075226  0.32751667  0.48699883     0.02500
C3909       C  0.01465910  0.29280091  0.48844742     0.27300
C3910       C  0.98033335  0.28454443  0.49045217    -0.25300
N3911       N  0.98987059  0.37213804  0.48911394    -0.82700
H3912       H  0.05220894  0.37987364  0.48603333     0.13100
C3913       C  0.07781301  0.33839649  0.48687723     0.02400
N3914       N  0.02325946  0.26623246  0.48812132    -0.81200
H3915       H  0.96042747  0.25787670  0.49188009     0.17900
C3916       C  0.09237915  0.33417451  0.49946203    -0.26100
C3917       C  0.12812174  0.35269689  0.50150222     0.35900
C3918       C  0.14971692  0.37511752  0.49069759    -0.48900
C3919       C  0.13545219  0.37674815  0.47753911    -0.25400
C3920       C  0.09953586  0.35846971  0.47551162     0.27300
H3921       H  0.07587534  0.31893923  0.50825976     0.13100
N3922       N  0.14233566  0.35108789  0.51505881    -0.82600
H3923       H  0.15208162  0.39450179  0.46933848     0.17900
N3924       N  0.08484902  0.36186571  0.46235209    -0.81200
H3925       H  0.13513941  0.32546128  0.51694584     0.33600
H3926       H  0.13138515  0.35868893  0.52312237     0.38100
H3927       H  0.10423404  0.37783733  0.45513454     0.33500
H3928       H  0.07146399  0.33751912  0.45756796     0.30200
H3929       H  0.00116325  0.24204080  0.48939267     0.33500
H3930       H  0.03300921  0.26644037  0.47787883     0.30200
H3931       H  0.97428748  0.36830031  0.48016629     0.38100
H3932       H  0.01213469  0.39615075  0.48772078     0.33600
C3933       C  0.90694720  0.18941517  0.37734900    -0.20200
C3934       C  0.90073540  0.16683442  0.38908608     0.36000
C3935       C  0.89417708  0.17530914  0.40281862    -0.26200
C3936       C  0.89441792  0.20599910  0.40519289     0.02500
C3937       C  0.90253376  0.22949403  0.39384201     0.27300
C3938       C  0.90887917  0.22107168  0.38003877    -0.25300
N3939       N  0.90066482  0.13520549  0.38706539    -0.82700
H3940       H  0.88822803  0.15761879  0.41170524     0.13100
C3941       C  0.88362819  0.21197588  0.41939569     0.02400
N3942       N  0.90352937  0.26143385  0.39633339    -0.81200
H3943       H  0.91392573  0.23875392  0.37124540     0.17900
C3944       C  0.90844004  0.23173667  0.42974511    -0.26100
C3945       C  0.89879936  0.23783029  0.44335393     0.35900
C3946       C  0.86345187  0.22449396  0.44646499    -0.20100
C3947       C  0.83876916  0.20402124  0.43605538    -0.25400
C3948       C  0.84850887  0.19756382  0.42260176     0.27300
H3949       H  0.93538537  0.24217899  0.42720796     0.13100
N3950       N  0.92476909  0.25723031  0.45396794    -0.82600
H3951       H  0.81166769  0.19339659  0.43828504     0.17900
N3952       N  0.82290163  0.17637972  0.41214677    -0.81200
H3953       H  0.94932736  0.26562126  0.44982440     0.33600
H3954       H  0.92125437  0.24054192  0.46244903     0.38100
H3955       H  0.79817658  0.16727852  0.41624940     0.33500
H3956       H  0.82559197  0.19189080  0.40331981     0.30200
H3957       H  0.91020948  0.27603564  0.38689527     0.33500
H3958       H  0.87864360  0.25562045  0.39900863     0.30200
H3959       H  0.92567813  0.14165138  0.38426630     0.38100
H3960       H  0.89489234  0.12138361  0.39669636     0.33600
loop_ 
_geom_bond_atom_site_label_1 
_geom_bond_atom_site_label_2 
_geom_bond_distance 
_geom_bond_site_symmetry_2 
_ccdc_geom_bond_type 
O1           Ni7   1.937       .  S
O1           C22   1.274       .  A
O2          Ni25   1.909       .  S
O2           C11   1.270       .  A
O3           Ni7   1.905       .  S
O3          Ni25   1.903       .  S
O3          Ni19   1.898       .  S
O3           H26   0.966       .  S
C4           O21   1.267       .  A
C4           O13   1.275       .  A
C4         C3946   1.490       .  S
O5          Ni24   1.919       .  S
O5           C11   1.270       .  A
O6          Ni24   1.892       .  S
O6            C8   1.267       .  A
Ni7          O10   1.914       .  S
Ni7          O12   1.918       .  S
C8           O18   1.279       .  A
C8         C3834   1.480       .  S
O9          Ni25   1.931       .  S
O9           C15   1.280       .  A
O10          C15   1.277       .  A
C11        C3849   1.480       .  S
O12          C14   1.271       .  A
O13         Ni24   1.935       .  S
C14          O20   1.268       .  A
C14        C3877   1.480       .  S
C15        C3793   1.474       .  S
H16          O17   0.967       .  S
O17         Ni25   1.923       .  S
O17         Ni19   1.910       .  S
O17         Ni24   1.905       .  S
O18         Ni19   1.958       .  S
Ni19         O23   1.908       .  S
Ni19         O21   1.898       .  S
O20         Ni25   1.915       .  S
C22          O23   1.267       .  A
C22        C3905   1.490       .  S
O27         Ni33   1.934       .  S
O27          C48   1.273       .  A
O28         Ni51   1.918       .  S
O28          C37   1.270       .  A
O29         Ni33   1.909       .  S
O29         Ni51   1.915       .  S
O29         Ni45   1.917       .  S
O29          H52   0.966       .  S
C30          O47   1.280       .  A
C30          O39   1.276       .  A
C30        C3933   1.492       .  S
O31         Ni50   1.923       .  S
O31          C37   1.269       .  A
O32         Ni50   1.902       .  S
O32          C34   1.269       .  A
Ni33         O36   1.924       .  S
Ni33         O38   1.910   1_655  S
C34          O44   1.274       .  A
C34        C3694   1.477       .  S
O35         Ni51   1.923       .  S
O35          C41   1.277       .  A
O36          C41   1.276       .  A
C37        C3737   1.494       .  S
O38          C40   1.269       .  A
O39         Ni50   1.916       .  S
C40          O46   1.269   1_455  A
C40        C3765   1.477       .  S
C41        C3666   1.474       .  S
H42          O43   0.966       .  S
O43         Ni51   1.915       .  S
O43         Ni45   1.900       .  S
O43         Ni50   1.896       .  S
O44         Ni45   1.938       .  S
Ni45         O49   1.917       .  S
Ni45         O47   1.930       .  S
O46         Ni51   1.915       .  S
C48          O49   1.270       .  A
C48        C3709   1.490       .  S
O53         Ni59   1.933       .  S
O53          C74   1.274       .  A
O54         Ni77   1.912       .  S
O54          C63   1.269       .  A
O55         Ni59   1.898       .  S
O55         Ni77   1.907       .  S
O55         Ni71   1.911       .  S
O55          H78   0.967       .  S
C56          O73   1.278       .  A
C56          O65   1.277       .  A
C56        C3597   1.493       .  S
O57         Ni76   1.922       .  S
O57          C63   1.270       .  A
O58         Ni76   1.905       .  S
O58          C60   1.270       .  A
Ni59         O62   1.922       .  S
Ni59         O64   1.911       .  S
C60          O70   1.277       .  A
C60        C3554   1.485       .  S
O61         Ni77   1.922       .  S
O61          C67   1.278       .  A
O62          C67   1.278       .  A
C63        C3625   1.480   1_655  S
O64          C66   1.269       .  A
O65         Ni76   1.914       .  S
C66          O72   1.271       .  A
C66        C3750   1.490       .  S
C67        C3513   1.472       .  S
H68          O69   0.966       .  S
O69         Ni77   1.915       .  S
O69         Ni71   1.902       .  S
O69         Ni76   1.894       .  S
O70         Ni71   1.945       .  S
Ni71         O75   1.920       .  S
Ni71         O73   1.927       .  S
O72         Ni77   1.926       .  S
C74          O75   1.271       .  A
C74        C3582   1.491       .  S
O79         Ni85   1.929       .  S
O79         C100   1.273       .  A
O80        Ni103   1.913       .  S
O80          C89   1.270       .  A
O81         Ni85   1.898       .  S
O81        Ni103   1.905       .  S
O81         Ni97   1.914       .  S
O81         H104   0.966       .  S
C82          O99   1.277       .  A
C82          O91   1.277       .  A
C82        C3610   1.492       .  S
O83        Ni102   1.924       .  S
O83          C89   1.271       .  A
O84        Ni102   1.892       .  S
O84          C86   1.265       .  A
Ni85         O88   1.916       .  S
Ni85         O90   1.923       .  S
C86          O96   1.278       .  A
C86        C3442   1.477       .  S
O87        Ni103   1.935       .  S
O87          C93   1.280       .  A
O88          C93   1.277       .  A
C89        C3890   1.489       .  S
O90          C92   1.271       .  A
O91        Ni102   1.928       .  S
C92          O98   1.269       .  A
C92        C3470   1.490       .  S
C93        C3401   1.477       .  S
H94          O95   0.966       .  S
O95        Ni103   1.911       .  S
O95         Ni97   1.908       .  S
O95        Ni102   1.892       .  S
O96         Ni97   1.956       .  S
Ni97        O101   1.928       .  S
Ni97         O99   1.912       .  S
O98        Ni103   1.916       .  S
C100        O101   1.274       .  A
C100       C3485   1.500       .  S
O105       Ni111   1.932       .  S
O105        C126   1.275       .  A
O106       Ni129   1.911       .  S
O106        C115   1.271       .  A
O107       Ni111   1.898       .  S
O107       Ni129   1.901       .  S
O107       Ni123   1.909       .  S
O107        H130   0.966       .  S
C108        O125   1.272       .  A
C108        O117   1.278       .  A
C108       C3373   1.485       .  S
O109       Ni128   1.923       .  S
O109        C115   1.271       .  A
O110       Ni128   1.894       .  S
O110        C112   1.267       .  A
Ni111       O114   1.913       .  S
Ni111       O116   1.922       .  S
C112        O122   1.277       .  A
C112       C3330   1.478       .  S
O113       Ni129   1.943       .  S
O113        C119   1.283       .  A
O114        C119   1.277       .  A
C115       C3778   1.481       .  S
O116        C118   1.271       .  A
O117       Ni128   1.934       .  S
C118        O124   1.268       .  A
C118       C3638   1.488       .  S
C119       C3302   1.478       .  S
H120        O121   0.966       .  S
O121       Ni129   1.919       .  S
O121       Ni123   1.904       .  S
O121       Ni128   1.897       .  S
O122       Ni123   1.950       .  S
Ni123       O127   1.913       .  S
Ni123       O125   1.907       .  S
O124       Ni129   1.910       .  S
C126        O127   1.269       .  A
C126       C3358   1.495       .  S
O131       Ni137   1.930       .  S
O131        C152   1.273       .  A
O132       Ni155   1.916       .  S
O132        C141   1.270       .  A
O133       Ni137   1.906       .  S
O133       Ni155   1.908       .  S
O133       Ni149   1.916       .  S
O133        H156   0.966       .  S
C134        O151   1.278       .  A
C134        O143   1.276       .  A
C134       C3386   1.492       .  S
O135       Ni154   1.925       .  S
O135        C141   1.271       .  A
O136       Ni154   1.901       .  S
O136        C138   1.268       .  A
Ni137       O140   1.925       .  S
Ni137       O142   1.917       .  S
C138        O148   1.276       .  A
C138       C3246   1.474       .  S
O139       Ni155   1.927       .  S
O139        C145   1.279       .  A
O140        C145   1.277       .  A
C141       C3457   1.488       .  S
O142        C144   1.270       .  A
O143       Ni154   1.920       .  S
C144        O150   1.268       .  A
C144       C3862   1.486       .  S
C145       C3205   1.476       .  S
H146        O147   0.966       .  S
O147       Ni155   1.919       .  S
O147       Ni149   1.902       .  S
O147       Ni154   1.896       .  S
O148       Ni149   1.942       .  S
Ni149       O153   1.918       .  S
Ni149       O151   1.928       .  S
O150       Ni155   1.911       .  S
C152        O153   1.271       .  A
C152       C3261   1.483       .  S
O157       Ni163   1.925       .  S
O157        C178   1.272       .  A
O158       Ni181   1.914       .  S
O158        C167   1.270       .  A
O159       Ni163   1.904       .  S
O159       Ni181   1.908       .  S
O159       Ni175   1.926       .  S
O159        H182   0.966       .  S
C160        O177   1.279       .  A
C160        O169   1.278       .  A
C160       C3177   1.495       .  S
O161       Ni180   1.920   1_556  S
O161        C167   1.269       .  A
O162       Ni180   1.898   1_556  S
O162        C164   1.268       .  A
Ni163       O166   1.916       .  S
Ni163       O168   1.921       .  S
C164        O174   1.274       .  A
C164       C3065   1.482       .  S
O165       Ni181   1.936       .  S
O165        C171   1.280       .  A
O166        C171   1.275       .  A
C167       C3134   1.479       .  S
O168        C170   1.272       .  A
O169       Ni180   1.926       .  S
C170        O176   1.270       .  A
C170       C3093   1.488       .  S
C171       C3037   1.481       .  S
H172        O173   0.966   1_554  S
O173       Ni181   1.921       .  S
O173       Ni175   1.903       .  S
O173       Ni180   1.897   1_556  S
O174       Ni175   1.941       .  S
Ni175       O179   1.917       .  S
Ni175       O177   1.928   1_556  S
O176       Ni181   1.917       .  S
C178        O179   1.269       .  A
C178       C3149   1.480       .  S
O183       Ni189   1.927       .  S
O183        C204   1.273       .  A
O184       Ni207   1.921       .  S
O184        C193   1.272       .  A
O185       Ni189   1.894       .  S
O185       Ni207   1.901       .  S
O185       Ni201   1.913       .  S
O185        H208   0.966       .  S
C186        O203   1.276       .  A
C186        O195   1.279       .  A
C186       C3190   1.488       .  S
O187       Ni206   1.926       .  S
O187        C193   1.272       .  A
O188       Ni206   1.892       .  S
O188        C190   1.266       .  A
Ni189       O192   1.917       .  S
Ni189       O194   1.913       .  S
C190        O200   1.275       .  A
C190       C2925   1.471       .  S
O191       Ni207   1.937       .  S
O191        C197   1.282       .  A
O192        C197   1.278       .  A
C193       C2953   1.493       .  S
O194        C196   1.270       .  A
O195       Ni206   1.935       .  S
C196        O202   1.268       .  A
C196       C2981   1.488       .  S
C197       C3653   1.478       .  S
H198        O199   0.966       .  S
O199       Ni207   1.919       .  S
O199       Ni201   1.905       .  S
O199       Ni206   1.894       .  S
O200       Ni201   1.942       .  S
Ni201       O205   1.918       .  S
Ni201       O203   1.916       .  S
O202       Ni207   1.911       .  S
C204        O205   1.270       .  A
C204       C3022   1.490       .  S
O209       Ni215   1.923       .  S
O209        C230   1.272       .  A
O210       Ni233   1.905       .  S
O210        C219   1.269       .  A
O211       Ni215   1.895       .  S
O211       Ni233   1.899       .  S
O211       Ni227   1.909       .  S
O211        H234   0.967       .  S
C212        O229   1.274       .  A
C212        O221   1.280       .  A
C212       C2897   1.488       .  S
O213       Ni232   1.928   1_556  S
O213        C219   1.273       .  A
O214       Ni232   1.901   1_556  S
O214        C216   1.267       .  A
Ni215       O218   1.913       .  S
Ni215       O220   1.919       .  S
C216        O226   1.276       .  A
C216       C2813   1.474       .  S
O217       Ni233   1.936       .  S
O217        C223   1.280       .  A
O218        C223   1.276       .  A
C219       C2841   1.475       .  S
O220        C222   1.269       .  A
O221       Ni232   1.934       .  S
C222        O228   1.267       .  A
C222       C3121   1.482       .  S
C223       C2798   1.475       .  S
H224        O225   0.966       .  S
O225       Ni233   1.909   1_554  S
O225       Ni227   1.903   1_554  S
O225       Ni232   1.888       .  S
O226       Ni227   1.947       .  S
Ni227       O231   1.923       .  S
Ni227       O229   1.905   1_556  S
O228       Ni233   1.908       .  S
C230        O231   1.272       .  A
C230       C2882   1.495       .  S
O235       Ni241   1.926       .  S
O235        C256   1.271       .  A
O236       Ni259   1.908       .  S
O236        C245   1.269       .  A
O237       Ni241   1.897       .  S
O237       Ni259   1.903       .  S
O237       Ni253   1.909       .  S
O237        H260   0.966       .  S
C238        O255   1.275       .  A
C238        O247   1.279       .  A
C238       C2910   1.480       .  S
O239       Ni258   1.926       .  S
O239        C245   1.272       .  A
O240       Ni258   1.901       .  S
O240        C242   1.268       .  A
Ni241       O244   1.914       .  S
Ni241       O246   1.912       .  S
C242        O252   1.277       .  A
C242       C2701   1.477       .  S
O243       Ni259   1.929       .  S
O243        C249   1.280       .  A
O244        C249   1.277       .  A
C245       C2994   1.479   1_565  S
O246        C248   1.269       .  A
O247       Ni258   1.927       .  S
C248        O254   1.270       .  A
C248       C2729   1.489       .  S
C249       C3526   1.475       .  S
H250        O251   0.966       .  S
O251       Ni259   1.914       .  S
O251       Ni253   1.904       .  S
O251       Ni258   1.894       .  S
O252       Ni253   1.947       .  S
Ni253       O257   1.920       .  S
Ni253       O255   1.911       .  S
O254       Ni259   1.921       .  S
C256        O257   1.271       .  A
C256       C2757   1.485       .  S
O261       Ni267   1.930       .  S
O261        C282   1.270       .  A
O262       Ni285   1.917       .  S
O262        C271   1.270       .  A
O263       Ni267   1.912       .  S
O263       Ni285   1.911       .  S
O263       Ni279   1.909       .  S
O263        H286   0.967       .  S
C264        O281   1.274       .  A
C264        O273   1.275       .  A
C264       C2673   1.498       .  S
O265       Ni284   1.930   1_556  S
O265        C271   1.271       .  A
O266       Ni284   1.898   1_556  S
O266        C268   1.268       .  A
Ni267       O270   1.919       .  S
Ni267       O272   1.909       .  S
C268        O278   1.274       .  A
C268       C2617   1.472       .  S
O269       Ni285   1.936       .  S
O269        C275   1.283       .  A
O270        C275   1.276       .  A
C271       C3106   1.497       .  S
O272        C274   1.268       .  A
O273       Ni284   1.928       .  S
C274        O280   1.266       .  A
C274       C2854   1.479       .  S
C275       C2589   1.479       .  S
H276        O277   0.966       .  S
O277       Ni285   1.923   1_554  S
O277       Ni279   1.914   1_554  S
O277       Ni284   1.908       .  S
O278       Ni279   1.935       .  S
Ni279       O283   1.917       .  S
Ni279       O281   1.917   1_556  S
O280       Ni285   1.905       .  S
C282        O283   1.268       .  A
C282       C2645   1.483       .  S
O287       Ni293   1.937       .  S
O287        C308   1.276       .  A
O288       Ni311   1.915       .  S
O288        C297   1.271       .  A
O289       Ni293   1.898       .  S
O289       Ni311   1.901       .  S
O289       Ni305   1.910       .  S
O289        H312   0.967       .  S
C290        O307   1.274       .  A
C290        O299   1.278       .  A
C290       C2686   1.496       .  S
O291       Ni310   1.924       .  S
O291        C297   1.271       .  A
O292       Ni310   1.898       .  S
O292        C294   1.268       .  A
Ni293       O296   1.917       .  S
Ni293       O298   1.924   1_565  S
C294        O304   1.278       .  A
C294       C2546   1.483       .  S
O295       Ni311   1.940       .  S
O295        C301   1.283       .  A
O296        C301   1.278       .  A
C297       C2742   1.479       .  S
O298        C300   1.272       .  A
O299       Ni310   1.927       .  S
C300        O306   1.269   1_545  A
C300       C2966   1.488       .  S
C301       C3289   1.476       .  S
H302        O303   0.966       .  S
O303       Ni311   1.919       .  S
O303       Ni305   1.905       .  S
O303       Ni310   1.895       .  S
O304       Ni305   1.951       .  S
Ni305       O309   1.910       .  S
Ni305       O307   1.915       .  S
O306       Ni311   1.918       .  S
C308        O309   1.269       .  A
C308       C2574   1.488       .  S
O313       Ni319   1.917       .  S
O313        C334   1.268       .  A
O314       Ni337   1.918   1_545  S
O314        C323   1.271       .  A
O315       Ni319   1.898       .  S
O315       Ni337   1.905       .  S
O315       Ni331   1.925       .  S
O315        H338   0.966       .  S
C316        O333   1.283       .  A
C316        O325   1.279       .  A
C316       C2421   1.478       .  S
O317       Ni336   1.930       .  S
O317        C323   1.274   1_565  A
O318       Ni336   1.916       .  S
O318        C320   1.270       .  A
Ni319       O322   1.922       .  S
Ni319       O324   1.897       .  S
C320        O330   1.267       .  A
C320       C2477   1.490       .  S
O321       Ni337   1.921       .  S
O321        C327   1.276       .  A
O322        C327   1.277       .  A
C323       C3681   1.491       .  S
O324        C326   1.268   1_565  A
O325       Ni336   1.921       .  S
C326        O332   1.277       .  A
C326       C3345   1.479       .  S
C327       C2505   1.491   1_565  S
H328        O329   0.966       .  S
O329       Ni337   1.912       .  S
O329       Ni331   1.902       .  S
O329       Ni336   1.898       .  S
O330       Ni331   1.915       .  S
Ni331       O335   1.911       .  S
Ni331       O333   1.934       .  S
O332       Ni337   1.949   1_545  S
C334        O335   1.268       .  A
C334       C2462   1.480       .  S
O339       Ni345   1.921       .  S
O339        C360   1.269       .  A
O340       Ni363   1.922       .  S
O340        C349   1.271       .  A
O341       Ni345   1.900       .  S
O341       Ni363   1.905       .  S
O341       Ni357   1.913       .  S
O341        H364   0.966       .  S
C342        O359   1.275       .  A
C342        O351   1.276       .  A
C342       C2337   1.471       .  S
O343       Ni362   1.928       .  S
O343        C349   1.271       .  A
O344       Ni362   1.909       .  S
O344        C346   1.269       .  A
Ni345       O348   1.918       .  S
Ni345       O350   1.899       .  S
C346        O356   1.269       .  A
C346       C2378   1.484       .  S
O347       Ni363   1.925       .  S
O347        C353   1.278       .  A
O348        C353   1.277       .  A
C349       C2714   1.490       .  S
O350        C352   1.267       .  A
O351       Ni362   1.922       .  S
C352        O358   1.273       .  A
C352       C2561   1.469       .  S
C353       C2518   1.493       .  S
H354        O355   0.966       .  S
O355       Ni363   1.918       .  S
O355       Ni357   1.916       .  S
O355       Ni362   1.907       .  S
O356       Ni357   1.918       .  S
Ni357       O361   1.917       .  S
Ni357       O359   1.918       .  S
O358       Ni363   1.935       .  S
C360        O361   1.268       .  A
C360       C2393   1.492       .  S
O365       Ni371   1.924       .  S
O365        C386   1.269       .  A
O366       Ni389   1.917       .  S
O366        C375   1.271       .  A
O367       Ni371   1.899       .  S
O367       Ni389   1.904       .  S
O367       Ni383   1.921       .  S
O367        H390   0.966       .  S
C368        O385   1.282       .  A
C368        O377   1.278       .  A
C368       C2253   1.474       .  S
O369       Ni388   1.937       .  S
O369        C375   1.274       .  A
O370       Ni388   1.915       .  S
O370        C372   1.269       .  A
Ni371       O374   1.924       .  S
Ni371       O376   1.900       .  S
C372        O382   1.267       .  A
C372       C2449   1.491       .  S
O373       Ni389   1.913       .  S
O373        C379   1.275       .  A
O374        C379   1.277       .  A
C375       C3541   1.491       .  S
O376        C378   1.268       .  A
O377       Ni388   1.922       .  S
C378        O384   1.277       .  A
C378       C3722   1.474       .  S
C379       C2294   1.489       .  S
H380        O381   0.966       .  S
O381       Ni389   1.906       .  S
O381       Ni383   1.907       .  S
O381       Ni388   1.904       .  S
O382       Ni383   1.909       .  S
Ni383       O387   1.918       .  S
Ni383       O385   1.930       .  S
O384       Ni389   1.944       .  S
C386        O387   1.271       .  A
C386       C2322   1.495       .  S
O391       Ni397   1.923       .  S
O391        C412   1.268       .  A
O392       Ni415   1.911   1_455  S
O392        C401   1.270       .  A
O393       Ni397   1.902       .  S
O393       Ni415   1.902       .  S
O393       Ni409   1.914       .  S
O393        H416   0.966       .  S
C394        O411   1.276       .  A
C394        O403   1.275       .  A
C394       C2197   1.471       .  S
O395       Ni414   1.940       .  S
O395        C401   1.276   1_655  A
O396       Ni414   1.920       .  S
O396        C398   1.274       .  A
Ni397       O400   1.917       .  S
Ni397       O402   1.900       .  S
C398        O408   1.270       .  A
C398       C2225   1.487       .  S
O399       Ni415   1.922       .  S
O399        C405   1.277       .  A
O400        C405   1.275       .  A
C401       C2533   1.485       .  S
O402        C404   1.267       .  A
O403       Ni414   1.921       .  S
C404        O410   1.274       .  A
C404       C3009   1.471   1_655  S
C405       C2281   1.488       .  S
H406        O407   0.967       .  S
O407       Ni415   1.915       .  S
O407       Ni409   1.913       .  S
O407       Ni414   1.908       .  S
O408       Ni409   1.920       .  S
Ni409       O413   1.914       .  S
Ni409       O411   1.920       .  S
O410       Ni415   1.938       .  S
C412        O413   1.270       .  A
C412       C2365   1.491       .  S
O417       Ni423   1.925       .  S
O417        C438   1.271       .  A
O418       Ni441   1.905       .  S
O418        C427   1.268       .  A
O419       Ni423   1.895       .  S
O419       Ni441   1.895       .  S
O419       Ni435   1.916       .  S
O419        H442   0.966       .  S
C420        O437   1.279       .  A
C420        O429   1.275       .  A
C420       C2141   1.477       .  S
O421       Ni440   1.938       .  S
O421        C427   1.276       .  A
O422       Ni440   1.918       .  S
O422        C424   1.273       .  A
Ni423       O426   1.919       .  S
Ni423       O428   1.911       .  S
C424        O434   1.270       .  A
C424       C2309   1.485       .  S
O425       Ni441   1.930       .  S
O425        C431   1.279       .  A
O426        C431   1.276       .  A
C427       C3317   1.480       .  S
O428        C430   1.270       .  A
O429       Ni440   1.925       .  S
C430        O436   1.274       .  A
C430       C3569   1.482       .  S
C431       C2182   1.498       .  S
H432        O433   0.967       .  S
O433       Ni441   1.919       .  S
O433       Ni435   1.914       .  S
O433       Ni440   1.910       .  S
O434       Ni435   1.921       .  S
Ni435       O439   1.917       .  S
Ni435       O437   1.927       .  S
O436       Ni441   1.939       .  S
C438        O439   1.271       .  A
C438       C2490   1.495       .  S
O443       Ni449   1.929       .  S
O443        C464   1.271       .  A
O444       Ni467   1.909       .  S
O444        C453   1.269       .  A
O445       Ni449   1.899       .  S
O445       Ni467   1.900       .  S
O445       Ni461   1.919       .  S
O445        H468   0.966       .  S
C446        O463   1.281       .  A
C446        O455   1.276       .  A
C446       C2113   1.478       .  S
O447       Ni466   1.930       .  S
O447        C453   1.273       .  A
O448       Ni466   1.916       .  S
O448        C450   1.271       .  A
Ni449       O452   1.925       .  S
Ni449       O454   1.903       .  S
C450        O460   1.269       .  A
C450       C2406   1.484       .  S
O451       Ni467   1.925       .  S
O451        C457   1.277       .  A
O452        C457   1.277       .  A
C453       C2938   1.478       .  S
O454        C456   1.268       .  A
O455       Ni466   1.918       .  S
C456        O462   1.275       .  A
C456       C2770   1.473       .  S
C457       C2169   1.491       .  S
H458        O459   0.966       .  S
O459       Ni467   1.914       .  S
O459       Ni461   1.908       .  S
O459       Ni466   1.904       .  S
O460       Ni461   1.913       .  S
Ni461       O465   1.916       .  S
Ni461       O463   1.932       .  S
O462       Ni467   1.939       .  S
C464        O465   1.271       .  A
C464       C2238   1.496       .  S
O469       Ni475   1.933       .  S
O469        C490   1.272       .  A
O470       Ni493   1.916       .  S
O470        C479   1.270       .  A
O471       Ni475   1.905       .  S
O471       Ni493   1.912       .  S
O471       Ni487   1.920       .  S
O471        H494   0.966       .  S
C472        O489   1.279       .  A
C472        O481   1.277       .  A
C472       C2154   1.475       .  S
O473       Ni492   1.934       .  S
O473        C479   1.274       .  A
O474       Ni492   1.914       .  S
O474        C476   1.271       .  A
Ni475       O478   1.927       .  S
Ni475       O480   1.894       .  S
C476        O486   1.269       .  A
C476       C2070   1.488       .  S
O477       Ni493   1.921       .  S
O477        C483   1.274       .  A
O478        C483   1.277       .  A
C479       C3233   1.497       .  S
O480        C482   1.267       .  A
O481       Ni492   1.920       .  S
C482        O488   1.276       .  A
C482       C3918   1.469       .  S
C483       C2085   1.501       .  S
H484        O485   0.966       .  S
O485       Ni493   1.911       .  S
O485       Ni487   1.905       .  S
O485       Ni492   1.903       .  S
O486       Ni487   1.916       .  S
Ni487       O491   1.910       .  S
Ni487       O489   1.930       .  S
O488       Ni493   1.944       .  S
C490        O491   1.269       .  A
C490       C2029   1.493       .  S
O495       Ni501   1.923       .  S
O495        C516   1.270       .  A
O496       Ni519   1.919       .  S
O496        C505   1.271       .  A
O497       Ni501   1.897       .  S
O497       Ni519   1.905       .  S
O497       Ni513   1.918       .  S
O497        H520   0.966       .  S
C498        O515   1.281       .  A
C498        O507   1.275       .  A
C498       C1889   1.480       .  S
O499       Ni518   1.926       .  S
O499        C505   1.272       .  A
O500       Ni518   1.914       .  S
O500        C502   1.270       .  A
Ni501       O504   1.924       .  S
Ni501       O506   1.901       .  S
C502        O512   1.268       .  A
C502       C1958   1.480       .  S
O503       Ni519   1.928       .  S
O503        C509   1.279       .  A
O504        C509   1.277       .  A
C505       C2014   1.486       .  S
O506        C508   1.268       .  A
O507       Ni518   1.912       .  S
C508        O514   1.275       .  A
C508       C1917   1.477       .  S
C509       C2098   1.485       .  S
H510        O511   0.966       .  S
O511       Ni519   1.920       .  S
O511       Ni513   1.913       .  S
O511       Ni518   1.906       .  S
O512       Ni513   1.910       .  S
Ni513       O517   1.917       .  S
Ni513       O515   1.936       .  S
O514       Ni519   1.941       .  S
C516        O517   1.269       .  A
C516       C1973   1.489       .  S
O521       Ni527   1.914       .  S
O521        C542   1.267       .  A
O522       Ni545   1.914       .  S
O522        C531   1.271       .  A
O523       Ni527   1.895       .  S
O523       Ni545   1.903       .  S
O523       Ni539   1.920       .  S
O523        H546   0.966       .  S
C524        O541   1.280       .  A
C524        O533   1.276       .  A
C524       C2266   1.472       .  S
O525       Ni544   1.930       .  S
O525        C531   1.274       .  A
O526       Ni544   1.921       .  S
O526        C528   1.272       .  A
Ni527       O530   1.916       .  S
Ni527       O532   1.896       .  S
C528        O538   1.269       .  A
C528       C2042   1.488       .  S
O529       Ni545   1.932       .  S
O529        C535   1.280       .  A
O530        C535   1.275       .  A
C531       C3429   1.483       .  S
O532        C534   1.267       .  A
O533       Ni544   1.916       .  S
C534        O540   1.275       .  A
C534       C3274   1.483       .  S
C535       C1861   1.492       .  S
H536        O537   0.966       .  S
O537       Ni545   1.918       .  S
O537       Ni539   1.907       .  S
O537       Ni544   1.901       .  S
O538       Ni539   1.913       .  S
Ni539       O543   1.922       .  S
Ni539       O541   1.929       .  S
O540       Ni545   1.945       .  S
C542        O543   1.270       .  A
C542       C1833   1.491       .  S
O547       Ni553   1.927       .  S
O547        C568   1.272       .  A
O548       Ni571   1.912       .  S
O548        C557   1.269       .  A
O549       Ni553   1.900       .  S
O549       Ni571   1.902       .  S
O549       Ni565   1.918       .  S
O549        H572   0.965       .  S
C550        O567   1.281       .  A
C550        O559   1.275       .  A
C550       C1721   1.475       .  S
O551       Ni570   1.927       .  S
O551        C557   1.272       .  A
O552       Ni570   1.916       .  S
O552        C554   1.271       .  A
Ni553       O556   1.926       .  S
Ni553       O558   1.900       .  S
C554        O564   1.267       .  A
C554       C1805   1.479       .  S
O555       Ni571   1.921       .  S
O555        C561   1.277       .  A
O556        C561   1.277       .  A
C557       C1777   1.480       .  S
O558        C560   1.267       .  A
O559       Ni570   1.915       .  S
C560        O566   1.275       .  A
C560       C1749   1.472       .  S
C561       C1874   1.495       .  S
H562        O563   0.968       .  S
O563       Ni571   1.915       .  S
O563       Ni565   1.906       .  S
O563       Ni570   1.905       .  S
O564       Ni565   1.912       .  S
Ni565       O569   1.908       .  S
Ni565       O567   1.934       .  S
O566       Ni571   1.940       .  S
C568        O569   1.268       .  A
C568       C1945   1.487   1_565  S
O573       Ni579   1.917       .  S
O573        C594   1.267       .  A
O574       Ni597   1.912       .  S
O574        C583   1.269       .  A
O575       Ni579   1.895       .  S
O575       Ni597   1.897       .  S
O575       Ni591   1.921       .  S
O575        H598   0.966       .  S
C576        O593   1.281       .  A
C576        O585   1.276       .  A
C576       C2434   1.477       .  S
O577       Ni596   1.931       .  S
O577        C583   1.273       .  A
O578       Ni596   1.916       .  S
O578        C580   1.270       .  A
Ni579       O582   1.921       .  S
Ni579       O584   1.900       .  S
C580        O590   1.270       .  A
C580       C1846   1.487       .  S
O581       Ni597   1.916       .  S
O581        C587   1.277       .  A
O582        C587   1.277       .  A
C583       C3821   1.479       .  S
O584        C586   1.267       .  A
O585       Ni596   1.917       .  S
C586        O592   1.277       .  A
C586       C3498   1.478       .  S
C587       C1706   1.486       .  S
H588        O589   0.966       .  S
O589       Ni597   1.915       .  S
O589       Ni591   1.911       .  S
O589       Ni596   1.904       .  S
O590       Ni591   1.917       .  S
Ni591       O595   1.922       .  S
Ni591       O593   1.933       .  S
O592       Ni597   1.948       .  S
C594        O595   1.272       .  A
C594       C2057   1.491       .  S
O599       Ni605   1.924       .  S
O599        C620   1.269       .  A
O600       Ni623   1.914       .  S
O600        C609   1.270       .  A
O601       Ni605   1.901       .  S
O601       Ni623   1.902       .  S
O601       Ni617   1.911       .  S
O601        H624   0.966       .  S
C602        O619   1.275       .  A
C602        O611   1.276       .  A
C602       C1609   1.472       .  S
O603       Ni622   1.932       .  S
O603        C609   1.274       .  A
O604       Ni622   1.915   1_545  S
O604        C606   1.271       .  A
Ni605       O608   1.913       .  S
Ni605       O610   1.900       .  S
C606        O616   1.268   1_545  A
C606       C1986   1.476       .  S
O607       Ni623   1.918       .  S
O607        C613   1.277       .  A
O608        C613   1.275       .  A
C609       C1665   1.484       .  S
O610        C612   1.268       .  A
O611       Ni622   1.920       .  S
C612        O618   1.273       .  A
C612       C1637   1.468       .  S
C613       C1693   1.484       .  S
H614        O615   0.967       .  S
O615       Ni623   1.911       .  S
O615       Ni617   1.912       .  S
O615       Ni622   1.906       .  S
O616       Ni617   1.915       .  S
Ni617       O621   1.914       .  S
Ni617       O619   1.915       .  S
O618       Ni623   1.932       .  S
C620        O621   1.268       .  A
C620       C1818   1.486       .  S
O625       Ni631   1.929       .  S
O625        C646   1.270       .  A
O626       Ni649   1.913       .  S
O626        C635   1.269       .  A
O627       Ni631   1.907       .  S
O627       Ni649   1.912       .  S
O627       Ni643   1.916   1_556  S
O627        H650   0.966       .  S
C628        O645   1.276       .  A
C628        O637   1.273       .  A
C628       C2210   1.473       .  S
O629       Ni648   1.928       .  S
O629        C635   1.272   1_554  A
O630       Ni648   1.908       .  S
O630        C632   1.269       .  A
Ni631       O634   1.923       .  S
Ni631       O636   1.899       .  S
C632        O642   1.271       .  A
C632       C1566   1.480   1_554  S
O633       Ni649   1.920       .  S
O633        C639   1.275       .  A
O634        C639   1.275       .  A
C635       C2630   1.489       .  S
O636        C638   1.267       .  A
O637       Ni648   1.918       .  S
C638        O644   1.274       .  A
C638       C2869   1.472       .  S
C639       C1581   1.490       .  S
H640        O641   0.966       .  S
O641       Ni649   1.914   1_554  S
O641       Ni643   1.917       .  S
O641       Ni648   1.910       .  S
O642       Ni643   1.920       .  S
Ni643       O647   1.915       .  S
Ni643       O645   1.924       .  S
O644       Ni649   1.938       .  S
C646        O647   1.270   1_556  A
C646       C1538   1.491       .  S
O651       Ni657   1.919       .  S
O651        C672   1.268       .  A
O652       Ni675   1.916       .  S
O652        C661   1.271       .  A
O653       Ni657   1.898       .  S
O653       Ni675   1.900       .  S
O653       Ni669   1.921       .  S
O653        H676   0.966       .  S
C654        O671   1.281       .  A
C654        O663   1.277       .  A
C654       C1734   1.481       .  S
O655       Ni674   1.924       .  S
O655        C661   1.272       .  A
O656       Ni674   1.917   1_455  S
O656        C658   1.270       .  A
Ni657       O660   1.917       .  S
Ni657       O662   1.900       .  S
C658        O668   1.268   1_455  A
C658       C1482   1.491       .  S
O659       Ni675   1.927       .  S
O659        C665   1.279       .  A
O660        C665   1.276       .  A
C661       C1497   1.479       .  S
O662        C664   1.267       .  A
O663       Ni674   1.916       .  S
C664        O670   1.277       .  A
C664       C1413   1.477       .  S
C665       C1594   1.491       .  S
H666        O667   0.966       .  S
O667       Ni675   1.917       .  S
O667       Ni669   1.907       .  S
O667       Ni674   1.904       .  S
O668       Ni669   1.915       .  S
Ni669       O673   1.910       .  S
Ni669       O671   1.934       .  S
O670       Ni675   1.948       .  S
C672        O673   1.269       .  A
C672       C1441   1.487       .  S
O677       Ni683   1.923       .  S
O677        C698   1.270       .  A
O678       Ni701   1.915       .  S
O678        C687   1.271       .  A
O679       Ni683   1.897       .  S
O679       Ni701   1.904       .  S
O679       Ni695   1.919   1_556  S
O679        H702   0.966       .  S
C680        O697   1.280       .  A
C680        O689   1.277       .  A
C680       C2350   1.474       .  S
O681       Ni700   1.928       .  S
O681        C687   1.274   1_554  A
O682       Ni700   1.921       .  S
O682        C684   1.272       .  A
Ni683       O686   1.921       .  S
Ni683       O688   1.897       .  S
C684        O694   1.268       .  A
C684       C1385   1.491       .  S
O685       Ni701   1.921       .  S
O685        C691   1.277       .  A
O686        C691   1.276       .  A
C687       C2826   1.486       .  S
O688        C690   1.268       .  A
O689       Ni700   1.917       .  S
C690        O696   1.278       .  A
C690       C3162   1.486       .  S
C691       C1357   1.489       .  S
H692        O693   0.966       .  S
O693       Ni701   1.914   1_554  S
O693       Ni695   1.901       .  S
O693       Ni700   1.902       .  S
O694       Ni695   1.916       .  S
Ni695       O699   1.907       .  S
Ni695       O697   1.927       .  S
O696       Ni701   1.948       .  S
C698        O699   1.267   1_556  A
C698       C1553   1.489       .  S
O703       Ni709   1.936       .  S
O703        C724   1.274       .  A
O704       Ni727   1.910       .  S
O704        C713   1.268       .  A
O705       Ni709   1.905       .  S
O705       Ni727   1.905       .  S
O705       Ni721   1.914       .  S
O705        H728   0.966       .  S
C706        O723   1.276       .  A
C706        O715   1.276       .  A
C706       C1622   1.466       .  S
O707       Ni726   1.925       .  S
O707        C713   1.271       .  A
O708       Ni726   1.909       .  S
O708        C710   1.269       .  A
Ni709       O712   1.927       .  S
Ni709       O714   1.905       .  S
C710        O720   1.268       .  A
C710       C1454   1.483       .  S
O711       Ni727   1.913       .  S
O711        C717   1.275       .  A
O712        C717   1.277       .  A
C713       C1329   1.479       .  S
O714        C716   1.269       .  A
O715       Ni726   1.918       .  S
C716        O722   1.274       .  A
C716       C1273   1.472       .  S
C717       C1370   1.493       .  S
H718        O719   0.967       .  S
O719       Ni727   1.907       .  S
O719       Ni721   1.904       .  S
O719       Ni726   1.904       .  S
O720       Ni721   1.919       .  S
Ni721       O725   1.899       .  S
Ni721       O723   1.921       .  S
O722       Ni727   1.936       .  S
C724        O725   1.265       .  A
C724       C1301   1.489   1_655  S
O729       Ni735   1.933       .  S
O729        C750   1.273       .  A
O730       Ni753   1.915       .  S
O730        C739   1.270       .  A
O731       Ni735   1.899       .  S
O731       Ni753   1.903       .  S
O731       Ni747   1.919   1_556  S
O731        H754   0.966       .  S
C732        O749   1.279       .  A
C732        O741   1.275       .  A
C732       C2126   1.477       .  S
O733       Ni752   1.934       .  S
O733        C739   1.275   1_554  A
O734       Ni752   1.919       .  S
O734        C736   1.272       .  A
Ni735       O738   1.926       .  S
Ni735       O740   1.904       .  S
C736        O746   1.271       .  A
C736       C1525   1.482       .  S
O737       Ni753   1.928       .  S
O737        C743   1.279       .  A
O738        C743   1.277       .  A
C739       C3078   1.487       .  S
O740        C742   1.269       .  A
O741       Ni752   1.917       .  S
C742        O748   1.275       .  A
C742       C2658   1.476       .  S
C743       C1258   1.496       .  S
H744        O745   0.966       .  S
O745       Ni753   1.915   1_554  S
O745       Ni747   1.912       .  S
O745       Ni752   1.906       .  S
O746       Ni747   1.920       .  S
Ni747       O751   1.919       .  S
Ni747       O749   1.929       .  S
O748       Ni753   1.937       .  S
C750        O751   1.272   1_556  A
C750       C1398   1.498   1_556  S
O755       Ni761   1.925       .  S
O755        C776   1.271       .  A
O756       Ni779   1.912       .  S
O756        C765   1.269       .  A
O757       Ni761   1.902       .  S
O757       Ni779   1.902       .  S
O757       Ni773   1.916       .  S
O757        H780   0.966       .  S
C758        O775   1.277       .  A
C758        O767   1.274       .  A
C758       C1902   1.476       .  S
O759       Ni778   1.932       .  S
O759        C765   1.273       .  A
O760       Ni778   1.918       .  S
O760        C762   1.271       .  A
Ni761       O764   1.918       .  S
Ni761       O766   1.905       .  S
C762        O772   1.270       .  A
C762       C1314   1.490       .  S
O763       Ni779   1.932       .  S
O763        C769   1.280       .  A
O764        C769   1.276       .  A
C765       C1217   1.481       .  S
O766        C768   1.268       .  A
O767       Ni778   1.920       .  S
C768        O774   1.273       .  A
C768       C1189   1.475       .  S
C769       C1245   1.499       .  S
H770        O771   0.967       .  S
O771       Ni779   1.921       .  S
O771       Ni773   1.916       .  S
O771       Ni778   1.913       .  S
O772       Ni773   1.914       .  S
Ni773       O777   1.918       .  S
Ni773       O775   1.925       .  S
O774       Ni779   1.938       .  S
C776        O777   1.269       .  A
C776       C1469   1.495       .  S
O781       Ni787   1.927       .  S
O781        C802   1.271       .  A
O782       Ni805   1.907       .  S
O782        C791   1.269       .  A
O783       Ni787   1.896       .  S
O783       Ni805   1.898       .  S
O783       Ni799   1.904       .  S
O783        H806   0.966       .  S
C784        O801   1.273       .  A
C784        O793   1.278       .  A
C784       C1161   1.482       .  S
O785       Ni804   1.927       .  S
O785        C791   1.272       .  A
O786       Ni804   1.898       .  S
O786        C788   1.268       .  A
Ni787       O790   1.912       .  S
Ni787       O792   1.917       .  S
C788        O798   1.277       .  A
C788       C2001   1.483       .  S
O789       Ni805   1.935       .  S
O789        C795   1.281       .  A
O790        C795   1.278       .  A
C791       C1105   1.481       .  S
O792        C794   1.269       .  A
O793       Ni804   1.930       .  S
C794        O800   1.266       .  A
C794       C1133   1.478       .  S
C795       C3414   1.475       .  S
H796        O797   0.966       .  S
O797       Ni805   1.909       .  S
O797       Ni799   1.902       .  S
O797       Ni804   1.890       .  S
O798       Ni799   1.950       .  S
Ni799       O803   1.916       .  S
Ni799       O801   1.900       .  S
O800       Ni805   1.914       .  S
C802        O803   1.270       .  A
C802       C1650   1.482       .  S
O807       Ni813   1.936       .  S
O807        C828   1.275       .  A
O808       Ni831   1.914       .  S
O808        C817   1.268       .  A
O809       Ni813   1.906       .  S
O809       Ni831   1.911       .  S
O809       Ni825   1.906       .  S
O809        H832   0.967       .  S
C810        O827   1.275       .  A
C810        O819   1.277       .  A
C810       C1174   1.485       .  S
O811       Ni830   1.915       .  S
O811        C817   1.267       .  A
O812       Ni830   1.900       .  S
O812        C814   1.267       .  A
Ni813       O816   1.929       .  S
Ni813       O818   1.915       .  S
C814        O824   1.275       .  A
C814       C1230   1.478       .  S
O815       Ni831   1.915       .  S
O815        C821   1.277       .  A
O816        C821   1.278       .  A
C817       C1049   1.485       .  S
O818        C820   1.268       .  A
O819       Ni830   1.915       .  S
C820        O826   1.269       .  A
C820       C1077   1.482       .  S
C821       C2785   1.467       .  S
H822        O823   0.966       .  S
O823       Ni831   1.911       .  S
O823       Ni825   1.901       .  S
O823       Ni830   1.897       .  S
O824       Ni825   1.941       .  S
Ni825       O829   1.911       .  S
Ni825       O827   1.915       .  S
O826       Ni831   1.921       .  S
C828        O829   1.270       .  A
C828       C1426   1.488       .  S
O833       Ni839   1.930       .  S
O833        C854   1.273   1_565  A
O834       Ni857   1.912       .  S
O834        C843   1.269       .  A
O835       Ni839   1.904       .  S
O835       Ni857   1.903       .  S
O835       Ni851   1.915       .  S
O835        H858   0.967       .  S
C836        O853   1.278       .  A
C836        O845   1.277       .  A
C836       C1006   1.492       .  S
O837       Ni856   1.920       .  S
O837        C843   1.267       .  A
O838       Ni856   1.891       .  S
O838        C840   1.266   1_565  A
Ni839       O842   1.919       .  S
Ni839       O844   1.917       .  S
C840        O850   1.276       .  A
C840       C1342   1.467       .  S
O841       Ni857   1.940       .  S
O841        C847   1.284       .  A
O842        C847   1.278       .  A
C843       C1090   1.474       .  S
O844        C846   1.269       .  A
O845       Ni856   1.924       .  S
C846        O852   1.265       .  A
C846       C1021   1.484       .  S
C847       C2602   1.480       .  S
H848        O849   0.966       .  S
O849       Ni857   1.923       .  S
O849       Ni851   1.901       .  S
O849       Ni856   1.900       .  S
O850       Ni851   1.940   1_545  S
Ni851       O855   1.920   1_565  S
Ni851       O853   1.920       .  S
O852       Ni857   1.900       .  S
C854        O855   1.271       .  A
C854       C1202   1.491       .  S
O859       Ni865   1.926       .  S
O859        C880   1.273       .  A
O860       Ni883   1.913       .  S
O860        C869   1.271       .  A
O861       Ni865   1.893       .  S
O861       Ni883   1.899       .  S
O861       Ni877   1.914       .  S
O861        H884   0.966       .  S
C862        O879   1.277       .  A
C862        O871   1.280       .  A
C862        C993   1.492       .  S
O863       Ni882   1.925       .  S
O863        C869   1.270       .  A
O864       Ni882   1.892       .  S
O864        C866   1.266       .  A
Ni865       O868   1.913       .  S
Ni865       O870   1.919       .  S
C866        O876   1.275       .  A
C866       C1678   1.472       .  S
O867       Ni883   1.943       .  S
O867        C873   1.283       .  A
O868        C873   1.277       .  A
C869        C978   1.487       .  S
O870        C872   1.270       .  A
O871       Ni882   1.930       .  S
C872        O878   1.267       .  A
C872       C1118   1.476       .  S
C873       C3218   1.480       .  S
H874        O875   0.966       .  S
O875       Ni883   1.917       .  S
O875       Ni877   1.901       .  S
O875       Ni882   1.889       .  S
O876       Ni877   1.943       .  S
Ni877       O881   1.918       .  S
Ni877       O879   1.916       .  S
O878       Ni883   1.909       .  S
C880        O881   1.272       .  A
C880       C1762   1.491       .  S
O885       Ni891   1.921       .  S
O885        C906   1.271       .  A
O886       Ni909   1.910       .  S
O886        C895   1.269       .  A
O887       Ni891   1.890       .  S
O887       Ni909   1.900       .  S
O887       Ni903   1.912       .  S
O887        H910   0.966       .  S
C888        O905   1.276       .  A
C888        O897   1.277       .  A
C888        C937   1.481       .  S
O889       Ni908   1.921       .  S
O889        C895   1.270       .  A
O890       Ni908   1.896       .  S
O890        C892   1.268       .  A
Ni891       O894   1.915       .  S
Ni891       O896   1.907       .  S
C892        O902   1.276       .  A
C892       C1510   1.479       .  S
O893       Ni909   1.939       .  S
O893        C899   1.283       .  A
O894        C899   1.278       .  A
C895       C1034   1.476       .  S
O896        C898   1.268       .  A
O897       Ni908   1.923       .  S
C898        O904   1.268       .  A
C898       C1062   1.479       .  S
C899       C3050   1.484       .  S
H900        O901   0.966       .  S
O901       Ni909   1.917       .  S
O901       Ni903   1.909       .  S
O901       Ni908   1.893       .  S
O902       Ni903   1.942       .  S
Ni903       O907   1.924       .  S
Ni903       O905   1.917       .  S
O904       Ni909   1.915       .  S
C906        O907   1.271       .  A
C906       C1286   1.491       .  S
O911       Ni917   1.931       .  S
O911        C932   1.273   1_655  A
O912       Ni935   1.915       .  S
O912        C921   1.269       .  A
O913       Ni917   1.907       .  S
O913       Ni935   1.913       .  S
O913       Ni929   1.915       .  S
O913        H936   0.966       .  S
C914        O931   1.274       .  A
C914        O923   1.276       .  A
C914        C950   1.477   1_655  S
O915       Ni934   1.920       .  S
O915        C921   1.269       .  A
O916       Ni934   1.894       .  S
O916        C918   1.266   1_655  A
Ni917       O920   1.918       .  S
Ni917       O922   1.909       .  S
C918        O928   1.275       .  A
C918       C1790   1.472       .  S
O919       Ni935   1.922       .  S
O919        C925   1.277       .  A
O920        C925   1.276       .  A
C921       C1146   1.487       .  S
O922        C924   1.269       .  A
O923       Ni934   1.921       .  S
C924        O930   1.271       .  A
C924        C965   1.484       .  S
C925       C3806   1.472       .  S
H926        O927   0.966       .  S
O927       Ni935   1.912       .  S
O927       Ni929   1.906       .  S
O927       Ni934   1.901       .  S
O928       Ni929   1.943   1_455  S
Ni929       O933   1.914   1_655  S
Ni929       O931   1.913       .  S
O930       Ni935   1.918       .  S
C932        O933   1.268       .  A
C932       C1930   1.495       .  S
C937        C938   1.411       .  A
C937        C942   1.406       .  A
C938        C939   1.405       .  A
C938        N943   1.432       .  S
C939        C940   1.403       .  A
C939        H944   1.084       .  S
C940        C945   1.480       .  S
C940        C941   1.408       .  A
C941        C942   1.403       .  A
C941        N946   1.438       .  S
C942        H947   1.084       .  S
N943        H963   1.046       .  S
N943        H964   1.046       .  S
C945        C948   1.401       .  A
C945        C952   1.409       .  A
N946        H961   1.046       .  S
N946        H962   1.046       .  S
C948        C949   1.401       .  A
C948        H953   1.084       .  S
C949        C950   1.413       .  A
C949        N954   1.439       .  S
C950        C951   1.405       .  A
C951        C952   1.408       .  A
C951        H955   1.084       .  S
C952        N956   1.437       .  S
N954        H957   1.046       .  S
N954        H958   1.046       .  S
N956        H959   1.046       .  S
N956        H960   1.046       .  S
C965        C966   1.419       .  A
C965        C970   1.407       .  A
C966        C967   1.405       .  A
C966        N971   1.438       .  S
C967        C968   1.398       .  A
C967        H972   1.084       .  S
C968        C973   1.474       .  S
C968        C969   1.407       .  A
C969        C970   1.404       .  A
C969        N974   1.438       .  S
C970        H975   1.084       .  S
N971        H991   1.045       .  S
N971        H992   1.046       .  S
C973        C976   1.396       .  A
C973        C980   1.409       .  A
N974        H989   1.046       .  S
N974        H990   1.045       .  S
C976        C977   1.400       .  A
C976        H981   1.084       .  S
C977        C978   1.418       .  A
C977        N982   1.433       .  S
C978        C979   1.407       .  A
C979        C980   1.407       .  A
C979        H983   1.083       .  S
C980        N984   1.438       .  S
N982        H985   1.046       .  S
N982        H986   1.046       .  S
N984        H987   1.046       .  S
N984        H988   1.045       .  S
C993        C994   1.418       .  A
C993        C998   1.409       .  A
C994        C995   1.407       .  A
C994        N999   1.438       .  S
C995        C996   1.401       .  A
C995       H1000   1.084       .  S
C996       C1001   1.482       .  S
C996        C997   1.407       .  A
C997        C998   1.404       .  A
C997       N1002   1.438       .  S
C998       H1003   1.083       .  S
N999       H1019   1.046       .  S
N999       H1020   1.046       .  S
C1001      C1004   1.401   1_545  A
C1001      C1008   1.407       .  A
N1002      H1017   1.046       .  S
N1002      H1018   1.046       .  S
C1004      C1005   1.407       .  A
C1004      H1009   1.084       .  S
C1005      C1006   1.420       .  A
C1005      N1010   1.438       .  S
C1006      C1007   1.408   1_565  A
C1007      C1008   1.405       .  A
C1007      H1011   1.083       .  S
C1008      N1012   1.438       .  S
N1010      H1013   1.046       .  S
N1010      H1014   1.046       .  S
N1012      H1015   1.046       .  S
N1012      H1016   1.046       .  S
C1021      C1022   1.416       .  A
C1021      C1026   1.409       .  A
C1022      C1023   1.406       .  A
C1022      N1027   1.437       .  S
C1023      C1024   1.400       .  A
C1023      H1028   1.084       .  S
C1024      C1029   1.472       .  S
C1024      C1025   1.404       .  A
C1025      C1026   1.401       .  A
C1025      N1030   1.438       .  S
C1026      H1031   1.084       .  S
N1027      H1047   1.045       .  S
N1027      H1048   1.046       .  S
C1029      C1032   1.396       .  A
C1029      C1036   1.409       .  A
N1030      H1045   1.046       .  S
N1030      H1046   1.046       .  S
C1032      C1033   1.397       .  A
C1032      H1037   1.084       .  S
C1033      C1034   1.412       .  A
C1033      N1038   1.433       .  S
C1034      C1035   1.405       .  A
C1035      C1036   1.408       .  A
C1035      H1039   1.084       .  S
C1036      N1040   1.437       .  S
N1038      H1041   1.046       .  S
N1038      H1042   1.046       .  S
N1040      H1043   1.046       .  S
N1040      H1044   1.045       .  S
C1049      C1050   1.415       .  A
C1049      C1054   1.410       .  A
C1050      C1051   1.405       .  A
C1050      N1055   1.438       .  S
C1051      C1052   1.400       .  A
C1051      H1056   1.084       .  S
C1052      C1057   1.472       .  S
C1052      C1053   1.403       .  A
C1053      C1054   1.402       .  A
C1053      N1058   1.438       .  S
C1054      H1059   1.083       .  S
N1055      H1075   1.046       .  S
N1055      H1076   1.046       .  S
C1057      C1060   1.401       .  A
C1057      C1064   1.404       .  A
N1058      H1073   1.046       .  S
N1058      H1074   1.045       .  S
C1060      C1061   1.406       .  A
C1060      H1065   1.084       .  S
C1061      C1062   1.415       .  A
C1061      N1066   1.438       .  S
C1062      C1063   1.407       .  A
C1063      C1064   1.400       .  A
C1063      H1067   1.084       .  S
C1064      N1068   1.438       .  S
N1066      H1069   1.046       .  S
N1066      H1070   1.045       .  S
N1068      H1071   1.046       .  S
N1068      H1072   1.045       .  S
C1077      C1078   1.412       .  A
C1077      C1082   1.404       .  A
C1078      C1079   1.411       .  A
C1078      N1083   1.437       .  S
C1079      C1080   1.407       .  A
C1079      H1084   1.083       .  S
C1080      C1085   1.487       .  S
C1080      C1081   1.410       .  A
C1081      C1082   1.398       .  A
C1081      N1086   1.439       .  S
C1082      H1087   1.083       .  S
N1083      H1103   1.046       .  S
N1083      H1104   1.046       .  S
C1085      C1088   1.405       .  A
C1085      C1092   1.412       .  A
N1086      H1101   1.046       .  S
N1086      H1102   1.046       .  S
C1088      C1089   1.402       .  A
C1088      H1093   1.084       .  S
C1089      C1090   1.410       .  A
C1089      N1094   1.439       .  S
C1090      C1091   1.404       .  A
C1091      C1092   1.407       .  A
C1091      H1095   1.084       .  S
C1092      N1096   1.438       .  S
N1094      H1097   1.046       .  S
N1094      H1098   1.046       .  S
N1096      H1099   1.046       .  S
N1096      H1100   1.046       .  S
C1105      C1106   1.413       .  A
C1105      C1110   1.406       .  A
C1106      C1107   1.397       .  A
C1106      N1111   1.433       .  S
C1107      C1108   1.398       .  A
C1107      H1112   1.084       .  S
C1108      C1113   1.478       .  S
C1108      C1109   1.411       .  A
C1109      C1110   1.408       .  A
C1109      N1114   1.438       .  S
C1110      H1115   1.084       .  S
N1111      H1131   1.046       .  S
N1111      H1132   1.046       .  S
C1113      C1116   1.401       .  A
C1113      C1120   1.409       .  A
N1114      H1129   1.046       .  S
N1114      H1130   1.046       .  S
C1116      C1117   1.405       .  A
C1116      H1121   1.084       .  S
C1117      C1118   1.415       .  A
C1117      N1122   1.438       .  S
C1118      C1119   1.404       .  A
C1119      C1120   1.402       .  A
C1119      H1123   1.084       .  S
C1120      N1124   1.438       .  S
N1122      H1125   1.046       .  S
N1122      H1126   1.045       .  S
N1124      H1127   1.046       .  S
N1124      H1128   1.046       .  S
C1133      C1134   1.411       .  A
C1133      C1138   1.405       .  A
C1134      C1135   1.403       .  A
C1134      N1139   1.432       .  S
C1135      C1136   1.402       .  A
C1135      H1140   1.084       .  S
C1136      C1141   1.479       .  S
C1136      C1137   1.408       .  A
C1137      C1138   1.404       .  A
C1137      N1142   1.438       .  S
C1138      H1143   1.084       .  S
N1139      H1159   1.046       .  S
N1139      H1160   1.046       .  S
C1141      C1144   1.403       .  A
C1141      C1148   1.405       .  A
N1142      H1157   1.046       .  S
N1142      H1158   1.046       .  S
C1144      C1145   1.408       .  A
C1144      H1149   1.084       .  S
C1145      C1146   1.415       .  A
C1145      N1150   1.437       .  S
C1146      C1147   1.409       .  A
C1147      C1148   1.402       .  A
C1147      H1151   1.083       .  S
C1148      N1152   1.438       .  S
N1150      H1153   1.046       .  S
N1150      H1154   1.045       .  S
N1152      H1155   1.046       .  S
N1152      H1156   1.046       .  S
C1161      C1162   1.414       .  A
C1161      C1166   1.409       .  A
C1162      C1163   1.398       .  A
C1162      N1167   1.433       .  S
C1163      C1164   1.398       .  A
C1163      H1168   1.084       .  S
C1164      C1169   1.470       .  S
C1164      C1165   1.406       .  A
C1165      C1166   1.404       .  A
C1165      N1170   1.438       .  S
C1166      H1171   1.083       .  S
N1167      H1187   1.046       .  S
N1167      H1188   1.046       .  S
C1169      C1172   1.398       .  A
C1169      C1176   1.404       .  A
N1170      H1185   1.046       .  S
N1170      H1186   1.045       .  S
C1172      C1173   1.405       .  A
C1172      H1177   1.084       .  S
C1173      C1174   1.419       .  A
C1173      N1178   1.438       .  S
C1174      C1175   1.408       .  A
C1175      C1176   1.400       .  A
C1175      H1179   1.083       .  S
C1176      N1180   1.438       .  S
N1178      H1181   1.046       .  S
N1178      H1182   1.046       .  S
N1180      H1183   1.046       .  S
N1180      H1184   1.046       .  S
C1189      C1190   1.409       .  A
C1189      C1194   1.402       .  A
C1190      C1191   1.410       .  A
C1190      N1195   1.437       .  S
C1191      C1192   1.406       .  A
C1191      H1196   1.084       .  S
C1192      C1197   1.487       .  S
C1192      C1193   1.411       .  A
C1193      C1194   1.405       .  A
C1193      N1198   1.438       .  S
C1194      H1199   1.084       .  S
N1195      H1215   1.045       .  S
N1195      H1216   1.046       .  S
C1197      C1200   1.405       .  A
C1197      C1204   1.409       .  A
N1198      H1213   1.046       .  S
N1198      H1214   1.046       .  S
C1200      C1201   1.414       .  A
C1200      H1205   1.083       .  S
C1201      C1202   1.416       .  A
C1201      N1206   1.437       .  S
C1202      C1203   1.406       .  A
C1203      C1204   1.402       .  A
C1203      H1207   1.084       .  S
C1204      N1208   1.439       .  S
N1206      H1209   1.046       .  S
N1206      H1210   1.045       .  S
N1208      H1211   1.046       .  S
N1208      H1212   1.046       .  S
C1217      C1218   1.412       .  A
C1217      C1222   1.405       .  A
C1218      C1219   1.404       .  A
C1218      N1223   1.438       .  S
C1219      C1220   1.402       .  A
C1219      H1224   1.084       .  S
C1220      C1225   1.486       .  S
C1220      C1221   1.411       .  A
C1221      C1222   1.412       .  A
C1221      N1226   1.436       .  S
C1222      H1227   1.084       .  S
N1223      H1243   1.046       .  S
N1223      H1244   1.046       .  S
C1225      C1228   1.402       .  A
C1225      C1232   1.412       .  A
N1226      H1241   1.046       .  S
N1226      H1242   1.046       .  S
C1228      C1229   1.404       .  A
C1228      H1233   1.084       .  S
C1229      C1230   1.411       .  A
C1229      N1234   1.438       .  S
C1230      C1231   1.404       .  A
C1231      C1232   1.412       .  A
C1231      H1235   1.084       .  S
C1232      N1236   1.436       .  S
N1234      H1237   1.046       .  S
N1234      H1238   1.045       .  S
N1236      H1239   1.046       .  S
N1236      H1240   1.046       .  S
C1245      C1246   1.422       .  A
C1245      C1250   1.410       .  A
C1246      C1247   1.405       .  A
C1246      N1251   1.438       .  S
C1247      C1248   1.399       .  A
C1247      H1252   1.084       .  S
C1248      C1253   1.488       .  S
C1248      C1249   1.410       .  A
C1249      C1250   1.410       .  A
C1249      N1254   1.437       .  S
C1250      H1255   1.083       .  S
N1251      H1271   1.046       .  S
N1251      H1272   1.046       .  S
C1253      C1256   1.402       .  A
C1253      C1260   1.410       .  A
N1254      H1269   1.046       .  S
N1254      H1270   1.046       .  S
C1256      C1257   1.405       .  A
C1256      H1261   1.084       .  S
C1257      C1258   1.416       .  A
C1257      N1262   1.432       .  S
C1258      C1259   1.408       .  A
C1259      C1260   1.408       .  A
C1259      H1263   1.080       .  S
C1260      N1264   1.438       .  S
N1262      H1265   1.046       .  S
N1262      H1266   1.045       .  S
N1264      H1267   1.045       .  S
N1264      H1268   1.045       .  S
C1273      C1274   1.407       .  A
C1273      C1278   1.402       .  A
C1274      C1275   1.408       .  A
C1274      N1279   1.437       .  S
C1275      C1276   1.406       .  A
C1275      H1280   1.084       .  S
C1276      C1281   1.486       .  S
C1276      C1277   1.411       .  A
C1277      C1278   1.407       .  A
C1277      N1282   1.438       .  S
C1278      H1283   1.084       .  S
N1279      H1299   1.045       .  S
N1279      H1300   1.046       .  S
C1281      C1284   1.405       .  A
C1281      C1288   1.408   1_655  A
N1282      H1297   1.046       .  S
N1282      H1298   1.046       .  S
C1284      C1285   1.415       .  A
C1284      H1289   1.083       .  S
C1285      C1286   1.416   1_655  A
C1285      N1290   1.437       .  S
C1286      C1287   1.407       .  A
C1287      C1288   1.399       .  A
C1287      H1291   1.083       .  S
C1288      N1292   1.439       .  S
N1290      H1293   1.046       .  S
N1290      H1294   1.045       .  S
N1292      H1295   1.046       .  S
N1292      H1296   1.046       .  S
C1301      C1302   1.419       .  A
C1301      C1306   1.408       .  A
C1302      C1303   1.406       .  A
C1302      N1307   1.439       .  S
C1303      C1304   1.402       .  A
C1303      H1308   1.084       .  S
C1304      C1309   1.481       .  S
C1304      C1305   1.406       .  A
C1305      C1306   1.404       .  A
C1305      N1310   1.438       .  S
C1306      H1311   1.083       .  S
N1307      H1327   1.046       .  S
N1307      H1328   1.046       .  S
C1309      C1312   1.402       .  A
C1309      C1316   1.406       .  A
N1310      H1325   1.046       .  S
N1310      H1326   1.046       .  S
C1312      C1313   1.408       .  A
C1312      H1317   1.084       .  S
C1313      C1314   1.418       .  A
C1313      N1318   1.437       .  S
C1314      C1315   1.409       .  A
C1315      C1316   1.401       .  A
C1315      H1319   1.083       .  S
C1316      N1320   1.438       .  S
N1318      H1321   1.046       .  S
N1318      H1322   1.045       .  S
N1320      H1323   1.046       .  S
N1320      H1324   1.045       .  S
C1329      C1330   1.413       .  A
C1329      C1334   1.406       .  A
C1330      C1331   1.401       .  A
C1330      N1335   1.439       .  S
C1331      C1332   1.401       .  A
C1331      H1336   1.084       .  S
C1332      C1337   1.482       .  S
C1332      C1333   1.409       .  A
C1333      C1334   1.410       .  A
C1333      N1338   1.437       .  S
C1334      H1339   1.084       .  S
N1335      H1355   1.046       .  S
N1335      H1356   1.046       .  S
C1337      C1340   1.402       .  A
C1337      C1344   1.411       .  A
N1338      H1353   1.046       .  S
N1338      H1354   1.046       .  S
C1340      C1341   1.403       .  A
C1340      H1345   1.084       .  S
C1341      C1342   1.407       .  A
C1341      N1346   1.432   1_545  S
C1342      C1343   1.402       .  A
C1343      C1344   1.407       .  A
C1343      H1347   1.084       .  S
C1344      N1348   1.437       .  S
N1346      H1349   1.045   1_565  S
N1346      H1350   1.046       .  S
N1348      H1351   1.046       .  S
N1348      H1352   1.045       .  S
C1357      C1358   1.414       .  A
C1357      C1362   1.407       .  A
C1358      C1359   1.403       .  A
C1358      N1363   1.433       .  S
C1359      C1360   1.402       .  A
C1359      H1364   1.084       .  S
C1360      C1365   1.485       .  S
C1360      C1361   1.410       .  A
C1361      C1362   1.406       .  A
C1361      N1366   1.438       .  S
C1362      H1367   1.082       .  S
N1363      H1383   1.046       .  S
N1363      H1384   1.046       .  S
C1365      C1368   1.402       .  A
C1365      C1372   1.408       .  A
N1366      H1381   1.046       .  S
N1366      H1382   1.046       .  S
C1368      C1369   1.406       .  A
C1368      H1373   1.084       .  S
C1369      C1370   1.418       .  A
C1369      N1374   1.438       .  S
C1370      C1371   1.410       .  A
C1371      C1372   1.405       .  A
C1371      H1375   1.083       .  S
C1372      N1376   1.438       .  S
N1374      H1377   1.046       .  S
N1374      H1378   1.046       .  S
N1376      H1379   1.046       .  S
N1376      H1380   1.046       .  S
C1385      C1386   1.417   1_554  A
C1385      C1390   1.408       .  A
C1386      C1387   1.407       .  A
C1386      N1391   1.438       .  S
C1387      C1388   1.402   1_556  A
C1387      H1392   1.084       .  S
C1388      C1393   1.488       .  S
C1388      C1389   1.409       .  A
C1389      C1390   1.409       .  A
C1389      N1394   1.437       .  S
C1390      H1395   1.083       .  S
N1391      H1411   1.046       .  S
N1391      H1412   1.046       .  S
C1393      C1396   1.399   1_554  A
C1393      C1400   1.410       .  A
N1394      H1409   1.046       .  S
N1394      H1410   1.046       .  S
C1396      C1397   1.407       .  A
C1396      H1401   1.084       .  S
C1397      C1398   1.421   1_556  A
C1397      N1402   1.438       .  S
C1398      C1399   1.409       .  A
C1399      C1400   1.410       .  A
C1399      H1403   1.083       .  S
C1400      N1404   1.438       .  S
N1402      H1405   1.046   1_556  S
N1402      H1406   1.046       .  S
N1404      H1407   1.046       .  S
N1404      H1408   1.046       .  S
C1413      C1414   1.407       .  A
C1413      C1418   1.403       .  A
C1414      C1415   1.408       .  A
C1414      N1419   1.432       .  S
C1415      C1416   1.406       .  A
C1415      H1420   1.084       .  S
C1416      C1421   1.490       .  S
C1416      C1417   1.412       .  A
C1417      C1418   1.407       .  A
C1417      N1422   1.438       .  S
C1418      H1423   1.084       .  S
N1419      H1439   1.046       .  S
N1419      H1440   1.045       .  S
C1421      C1424   1.406       .  A
C1421      C1428   1.410       .  A
N1422      H1437   1.046       .  S
N1422      H1438   1.046       .  S
C1424      C1425   1.413       .  A
C1424      H1429   1.083       .  S
C1425      C1426   1.415       .  A
C1425      N1430   1.437       .  S
C1426      C1427   1.405       .  A
C1427      C1428   1.403       .  A
C1427      H1431   1.084       .  S
C1428      N1432   1.439       .  S
N1430      H1433   1.046       .  S
N1430      H1434   1.046       .  S
N1432      H1435   1.046       .  S
N1432      H1436   1.046       .  S
C1441      C1442   1.416       .  A
C1441      C1446   1.407       .  A
C1442      C1443   1.401       .  A
C1442      N1447   1.433       .  S
C1443      C1444   1.401       .  A
C1443      H1448   1.084       .  S
C1444      C1449   1.482       .  S
C1444      C1445   1.410       .  A
C1445      C1446   1.405       .  A
C1445      N1450   1.438       .  S
C1446      H1451   1.083       .  S
N1447      H1467   1.046       .  S
N1447      H1468   1.046       .  S
C1449      C1452   1.403       .  A
C1449      C1456   1.409       .  A
N1450      H1465   1.046       .  S
N1450      H1466   1.046       .  S
C1452      C1453   1.406   1_565  A
C1452      H1457   1.084       .  S
C1453      C1454   1.416       .  A
C1453      N1458   1.438       .  S
C1454      C1455   1.405   1_545  A
C1455      C1456   1.402       .  A
C1455      H1459   1.083       .  S
C1456      N1460   1.438       .  S
N1458      H1461   1.046       .  S
N1458      H1462   1.045       .  S
N1460      H1463   1.046       .  S
N1460      H1464   1.046       .  S
C1469      C1470   1.418       .  A
C1469      C1474   1.409       .  A
C1470      C1471   1.410       .  A
C1470      N1475   1.438       .  S
C1471      C1472   1.405   1_545  A
C1471      H1476   1.084       .  S
C1472      C1477   1.490       .  S
C1472      C1473   1.408       .  A
C1473      C1474   1.405   1_565  A
C1473      N1478   1.438       .  S
C1474      H1479   1.083       .  S
N1475      H1495   1.046       .  S
N1475      H1496   1.046       .  S
C1477      C1480   1.403       .  A
C1477      C1484   1.410       .  A
N1478      H1493   1.046       .  S
N1478      H1494   1.046       .  S
C1480      C1481   1.408       .  A
C1480      H1485   1.084       .  S
C1481      C1482   1.417       .  A
C1481      N1486   1.438       .  S
C1482      C1483   1.409       .  A
C1483      C1484   1.406       .  A
C1483      H1487   1.084       .  S
C1484      N1488   1.438       .  S
N1486      H1489   1.046       .  S
N1486      H1490   1.046       .  S
N1488      H1491   1.046       .  S
N1488      H1492   1.046       .  S
C1497      C1498   1.412       .  A
C1497      C1502   1.403       .  A
C1498      C1499   1.412       .  A
C1498      N1503   1.436       .  S
C1499      C1500   1.404       .  A
C1499      H1504   1.083       .  S
C1500      C1505   1.482   1_655  S
C1500      C1501   1.409       .  A
C1501      C1502   1.401       .  A
C1501      N1506   1.439   1_655  S
C1502      H1507   1.084       .  S
N1503      H1523   1.046       .  S
N1503      H1524   1.046       .  S
C1505      C1508   1.405   1_455  A
C1505      C1512   1.408       .  A
N1506      H1521   1.046       .  S
N1506      H1522   1.046       .  S
C1508      C1509   1.410   1_655  A
C1508      H1513   1.083       .  S
C1509      C1510   1.411       .  A
C1509      N1514   1.437       .  S
C1510      C1511   1.405       .  A
C1511      C1512   1.403       .  A
C1511      H1515   1.084       .  S
C1512      N1516   1.439       .  S
N1514      H1517   1.046   1_455  S
N1514      H1518   1.046       .  S
N1516      H1519   1.046       .  S
N1516      H1520   1.046       .  S
C1525      C1526   1.409   1_554  A
C1525      C1530   1.406       .  A
C1526      C1527   1.402       .  A
C1526      N1531   1.432       .  S
C1527      C1528   1.404   1_556  A
C1527      H1532   1.084       .  S
C1528      C1533   1.491       .  S
C1528      C1529   1.414       .  A
C1529      C1530   1.410       .  A
C1529      N1534   1.438       .  S
C1530      H1535   1.084       .  S
N1531      H1551   1.046       .  S
N1531      H1552   1.045       .  S
C1533      C1536   1.401   1_554  A
C1533      C1540   1.412       .  A
N1534      H1549   1.046       .  S
N1534      H1550   1.046       .  S
C1536      C1537   1.407       .  A
C1536      H1541   1.084       .  S
C1537      C1538   1.420       .  A
C1537      N1542   1.438       .  S
C1538      C1539   1.406   1_556  A
C1539      C1540   1.407       .  A
C1539      H1543   1.084       .  S
C1540      N1544   1.438       .  S
N1542      H1545   1.046       .  S
N1542      H1546   1.045       .  S
N1544      H1547   1.046       .  S
N1544      H1548   1.046       .  S
C1553      C1554   1.418   1_556  A
C1553      C1558   1.410       .  A
C1554      C1555   1.405       .  A
C1554      N1559   1.438       .  S
C1555      C1556   1.400   1_554  A
C1555      H1560   1.084       .  S
C1556      C1561   1.476       .  S
C1556      C1557   1.404       .  A
C1557      C1558   1.402       .  A
C1557      N1562   1.438       .  S
C1558      H1563   1.083       .  S
N1559      H1579   1.046   1_554  S
N1559      H1580   1.046       .  S
C1561      C1564   1.399   1_556  A
C1561      C1568   1.406       .  A
N1562      H1577   1.046       .  S
N1562      H1578   1.046       .  S
C1564      C1565   1.404       .  A
C1564      H1569   1.084       .  S
C1565      C1566   1.416   1_554  A
C1565      N1570   1.438       .  S
C1566      C1567   1.406       .  A
C1567      C1568   1.403       .  A
C1567      H1571   1.084       .  S
C1568      N1572   1.438       .  S
N1570      H1573   1.046       .  S
N1570      H1574   1.045       .  S
N1572      H1575   1.046       .  S
N1572      H1576   1.046       .  S
C1581      C1582   1.416       .  A
C1581      C1586   1.406       .  A
C1582      C1583   1.405       .  A
C1582      N1587   1.438       .  S
C1583      C1584   1.402       .  A
C1583      H1588   1.084       .  S
C1584      C1589   1.487       .  S
C1584      C1585   1.410       .  A
C1585      C1586   1.407       .  A
C1585      N1590   1.438       .  S
C1586      H1591   1.079       .  S
N1587      H1607   1.046       .  S
N1587      H1608   1.046       .  S
C1589      C1592   1.401       .  A
C1589      C1596   1.410       .  A
N1590      H1605   1.045       .  S
N1590      H1606   1.046       .  S
C1592      C1593   1.404       .  A
C1592      H1597   1.084       .  S
C1593      C1594   1.418       .  A
C1593      N1598   1.438       .  S
C1594      C1595   1.407       .  A
C1595      C1596   1.406       .  A
C1595      H1599   1.082       .  S
C1596      N1600   1.438       .  S
N1598      H1601   1.046       .  S
N1598      H1602   1.046       .  S
N1600      H1603   1.046       .  S
N1600      H1604   1.046       .  S
C1609      C1610   1.413       .  A
C1609      C1614   1.401       .  A
C1610      C1611   1.410   1_565  A
C1610      N1615   1.437       .  S
C1611      C1612   1.401       .  A
C1611      H1616   1.083       .  S
C1612      C1617   1.477       .  S
C1612      C1613   1.409   1_545  A
C1613      C1614   1.400       .  A
C1613      N1618   1.438   1_565  S
C1614      H1619   1.084       .  S
N1615      H1635   1.046       .  S
N1615      H1636   1.046   1_565  S
C1617      C1620   1.403       .  A
C1617      C1624   1.408       .  A
N1618      H1633   1.046   1_545  S
N1618      H1634   1.046   1_545  S
C1620      C1621   1.402       .  A
C1620      H1625   1.084       .  S
C1621      C1622   1.406       .  A
C1621      N1626   1.437       .  S
C1622      C1623   1.405       .  A
C1623      C1624   1.408       .  A
C1623      H1627   1.084       .  S
C1624      N1628   1.437       .  S
N1626      H1629   1.046       .  S
N1626      H1630   1.045       .  S
N1628      H1631   1.046       .  S
N1628      H1632   1.045   1_545  S
C1637      C1638   1.409       .  A
C1637      C1642   1.400       .  A
C1638      C1639   1.405       .  A
C1638      N1643   1.438       .  S
C1639      C1640   1.404       .  A
C1639      H1644   1.084       .  S
C1640      C1645   1.485       .  S
C1640      C1641   1.412       .  A
C1641      C1642   1.407       .  A
C1641      N1646   1.437       .  S
C1642      H1647   1.084       .  S
N1643      H1663   1.046       .  S
N1643      H1664   1.046       .  S
C1645      C1648   1.402       .  A
C1645      C1652   1.410       .  A
N1646      H1661   1.046       .  S
N1646      H1662   1.045       .  S
C1648      C1649   1.403       .  A
C1648      H1653   1.084       .  S
C1649      C1650   1.413       .  A
C1649      N1654   1.438       .  S
C1650      C1651   1.405       .  A
C1651      C1652   1.409       .  A
C1651      H1655   1.084       .  S
C1652      N1656   1.437       .  S
N1654      H1657   1.046       .  S
N1654      H1658   1.046       .  S
N1656      H1659   1.046       .  S
N1656      H1660   1.046       .  S
C1665      C1666   1.413       .  A
C1665      C1670   1.403       .  A
C1666      C1667   1.412       .  A
C1666      N1671   1.436       .  S
C1667      C1668   1.405       .  A
C1667      H1672   1.084       .  S
C1668      C1673   1.489   1_565  S
C1668      C1669   1.412       .  A
C1669      C1670   1.403       .  A
C1669      N1674   1.439   1_565  S
C1670      H1675   1.084       .  S
N1671      H1691   1.046       .  S
N1671      H1692   1.046       .  S
C1673      C1676   1.406   1_545  A
C1673      C1680   1.413       .  A
N1674      H1689   1.046       .  S
N1674      H1690   1.046       .  S
C1676      C1677   1.406   1_565  A
C1676      H1681   1.084       .  S
C1677      C1678   1.406       .  A
C1677      N1682   1.433       .  S
C1678      C1679   1.402       .  A
C1679      C1680   1.405       .  A
C1679      H1683   1.084       .  S
C1680      N1684   1.438       .  S
N1682      H1685   1.045   1_545  S
N1682      H1686   1.046       .  S
N1684      H1687   1.046       .  S
N1684      H1688   1.046       .  S
C1693      C1694   1.413       .  A
C1693      C1698   1.406       .  A
C1694      C1695   1.400       .  A
C1694      N1699   1.433       .  S
C1695      C1696   1.402       .  A
C1695      H1700   1.084       .  S
C1696      C1701   1.483       .  S
C1696      C1697   1.410       .  A
C1697      C1698   1.403       .  A
C1697      N1702   1.438       .  S
C1698      H1703   1.081       .  S
N1699      H1719   1.046       .  S
N1699      H1720   1.046       .  S
C1701      C1704   1.403       .  A
C1701      C1708   1.409       .  A
N1702      H1717   1.045       .  S
N1702      H1718   1.045       .  S
C1704      C1705   1.405       .  A
C1704      H1709   1.084       .  S
C1705      C1706   1.417       .  A
C1705      N1710   1.438       .  S
C1706      C1707   1.407       .  A
C1707      C1708   1.402       .  A
C1707      H1711   1.083       .  S
C1708      N1712   1.438       .  S
N1710      H1713   1.046       .  S
N1710      H1714   1.046       .  S
N1712      H1715   1.046       .  S
N1712      H1716   1.046       .  S
C1721      C1722   1.414       .  A
C1721      C1726   1.401       .  A
C1722      C1723   1.411       .  A
C1722      N1727   1.437       .  S
C1723      C1724   1.402       .  A
C1723      H1728   1.084       .  S
C1724      C1729   1.484       .  S
C1724      C1725   1.411       .  A
C1725      C1726   1.406       .  A
C1725      N1730   1.438       .  S
C1726      H1731   1.084       .  S
N1727      H1747   1.045       .  S
N1727      H1748   1.046       .  S
C1729      C1732   1.401   1_455  A
C1729      C1736   1.409       .  A
N1730      H1745   1.046       .  S
N1730      H1746   1.045       .  S
C1732      C1733   1.404       .  A
C1732      H1737   1.084       .  S
C1733      C1734   1.412       .  A
C1733      N1738   1.438       .  S
C1734      C1735   1.407       .  A
C1735      C1736   1.412   1_655  A
C1735      H1739   1.084       .  S
C1736      N1740   1.437       .  S
N1738      H1741   1.045       .  S
N1738      H1742   1.046       .  S
N1740      H1743   1.046       .  S
N1740      H1744   1.045       .  S
C1749      C1750   1.406       .  A
C1749      C1754   1.402       .  A
C1750      C1751   1.405       .  A
C1750      N1755   1.432       .  S
C1751      C1752   1.405       .  A
C1751      H1756   1.084       .  S
C1752      C1757   1.488       .  S
C1752      C1753   1.412       .  A
C1753      C1754   1.407       .  A
C1753      N1758   1.438       .  S
C1754      H1759   1.084       .  S
N1755      H1775   1.046       .  S
N1755      H1776   1.046       .  S
C1757      C1760   1.404       .  A
C1757      C1764   1.409   1_565  A
N1758      H1773   1.046       .  S
N1758      H1774   1.046       .  S
C1760      C1761   1.412   1_565  A
C1760      H1765   1.083       .  S
C1761      C1762   1.417       .  A
C1761      N1766   1.437   1_545  S
C1762      C1763   1.407       .  A
C1763      C1764   1.403       .  A
C1763      H1767   1.083       .  S
C1764      N1768   1.439       .  S
N1766      H1769   1.046       .  S
N1766      H1770   1.046       .  S
N1768      H1771   1.046       .  S
N1768      H1772   1.046       .  S
C1777      C1778   1.412       .  A
C1777      C1782   1.405       .  A
C1778      C1779   1.402       .  A
C1778      N1783   1.438       .  S
C1779      C1780   1.402       .  A
C1779      H1784   1.084       .  S
C1780      C1785   1.485       .  S
C1780      C1781   1.411       .  A
C1781      C1782   1.412       .  A
C1781      N1786   1.437       .  S
C1782      H1787   1.084       .  S
N1783      H1803   1.046       .  S
N1783      H1804   1.046       .  S
C1785      C1788   1.403       .  A
C1785      C1792   1.411       .  A
N1786      H1801   1.046       .  S
N1786      H1802   1.046       .  S
C1788      C1789   1.407       .  A
C1788      H1793   1.084       .  S
C1789      C1790   1.409       .  A
C1789      N1794   1.437       .  S
C1790      C1791   1.402       .  A
C1791      C1792   1.407       .  A
C1791      H1795   1.084       .  S
C1792      N1796   1.437       .  S
N1794      H1797   1.046   1_455  S
N1794      H1798   1.046       .  S
N1796      H1799   1.046       .  S
N1796      H1800   1.045       .  S
C1805      C1806   1.413       .  A
C1805      C1810   1.404       .  A
C1806      C1807   1.407   1_455  A
C1806      N1811   1.438       .  S
C1807      C1808   1.404       .  A
C1807      H1812   1.084       .  S
C1808      C1813   1.486       .  S
C1808      C1809   1.410       .  A
C1809      C1810   1.404   1_655  A
C1809      N1814   1.438       .  S
C1810      H1815   1.084       .  S
N1811      H1831   1.046       .  S
N1811      H1832   1.045       .  S
C1813      C1816   1.401       .  A
C1813      C1820   1.411       .  A
N1814      H1829   1.046       .  S
N1814      H1830   1.046       .  S
C1816      C1817   1.404       .  A
C1816      H1821   1.084       .  S
C1817      C1818   1.416       .  A
C1817      N1822   1.438       .  S
C1818      C1819   1.406       .  A
C1819      C1820   1.408       .  A
C1819      H1823   1.084       .  S
C1820      N1824   1.438       .  S
N1822      H1825   1.046       .  S
N1822      H1826   1.046       .  S
N1824      H1827   1.046       .  S
N1824      H1828   1.046       .  S
C1833      C1834   1.416       .  A
C1833      C1838   1.410       .  A
C1834      C1835   1.409       .  A
C1834      N1839   1.438       .  S
C1835      C1836   1.405       .  A
C1835      H1840   1.084       .  S
C1836      C1841   1.487       .  S
C1836      C1837   1.407       .  A
C1837      C1838   1.402       .  A
C1837      N1842   1.438       .  S
C1838      H1843   1.083       .  S
N1839      H1859   1.046       .  S
N1839      H1860   1.046       .  S
C1841      C1844   1.403       .  A
C1841      C1848   1.409       .  A
N1842      H1857   1.046       .  S
N1842      H1858   1.046       .  S
C1844      C1845   1.407       .  A
C1844      H1849   1.084       .  S
C1845      C1846   1.417       .  A
C1845      N1850   1.438       .  S
C1846      C1847   1.407       .  A
C1847      C1848   1.405       .  A
C1847      H1851   1.084       .  S
C1848      N1852   1.438       .  S
N1850      H1853   1.046       .  S
N1850      H1854   1.045       .  S
N1852      H1855   1.046       .  S
N1852      H1856   1.046       .  S
C1861      C1862   1.417       .  A
C1861      C1866   1.407       .  A
C1862      C1863   1.402       .  A
C1862      N1867   1.433       .  S
C1863      C1864   1.400       .  A
C1863      H1868   1.084       .  S
C1864      C1869   1.488       .  S
C1864      C1865   1.412       .  A
C1865      C1866   1.409       .  A
C1865      N1870   1.437       .  S
C1866      H1871   1.083       .  S
N1867      H1887   1.046       .  S
N1867      H1888   1.046       .  S
C1869      C1872   1.401       .  A
C1869      C1876   1.410       .  A
N1870      H1885   1.046       .  S
N1870      H1886   1.046       .  S
C1872      C1873   1.406       .  A
C1872      H1877   1.084       .  S
C1873      C1874   1.419       .  A
C1873      N1878   1.438       .  S
C1874      C1875   1.409       .  A
C1875      C1876   1.407       .  A
C1875      H1879   1.083       .  S
C1876      N1880   1.438       .  S
N1878      H1881   1.046       .  S
N1878      H1882   1.046       .  S
N1880      H1883   1.046       .  S
N1880      H1884   1.046       .  S
C1889      C1890   1.411       .  A
C1889      C1894   1.407       .  A
C1890      C1891   1.404       .  A
C1890      N1895   1.438       .  S
C1891      C1892   1.402       .  A
C1891      H1896   1.084       .  S
C1892      C1897   1.485       .  S
C1892      C1893   1.409       .  A
C1893      C1894   1.413       .  A
C1893      N1898   1.437       .  S
C1894      H1899   1.084       .  S
N1895      H1915   1.045       .  S
N1895      H1916   1.046       .  S
C1897      C1900   1.402       .  A
C1897      C1904   1.411       .  A
N1898      H1913   1.046       .  S
N1898      H1914   1.045       .  S
C1900      C1901   1.411       .  A
C1900      H1905   1.083       .  S
C1901      C1902   1.413       .  A
C1901      N1906   1.437       .  S
C1902      C1903   1.402       .  A
C1903      C1904   1.405       .  A
C1903      H1907   1.084       .  S
C1904      N1908   1.438       .  S
N1906      H1909   1.046       .  S
N1906      H1910   1.045       .  S
N1908      H1911   1.046       .  S
N1908      H1912   1.045       .  S
C1917      C1918   1.411       .  A
C1917      C1922   1.404       .  A
C1918      C1919   1.404       .  A
C1918      N1923   1.438       .  S
C1919      C1920   1.402       .  A
C1919      H1924   1.084       .  S
C1920      C1925   1.484       .  S
C1920      C1921   1.411       .  A
C1921      C1922   1.411       .  A
C1921      N1926   1.437       .  S
C1922      H1927   1.084       .  S
N1923      H1943   1.046       .  S
N1923      H1944   1.046       .  S
C1925      C1928   1.403       .  A
C1925      C1932   1.407       .  A
N1926      H1941   1.046       .  S
N1926      H1942   1.046       .  S
C1928      C1929   1.415       .  A
C1928      H1933   1.083       .  S
C1929      C1930   1.420       .  A
C1929      N1934   1.437       .  S
C1930      C1931   1.407       .  A
C1931      C1932   1.400       .  A
C1931      H1935   1.083       .  S
C1932      N1936   1.439       .  S
N1934      H1937   1.046       .  S
N1934      H1938   1.045       .  S
N1936      H1939   1.045       .  S
N1936      H1940   1.046       .  S
C1945      C1946   1.417       .  A
C1945      C1950   1.408       .  A
C1946      C1947   1.406       .  A
C1946      N1951   1.438       .  S
C1947      C1948   1.403       .  A
C1947      H1952   1.084       .  S
C1948      C1953   1.483       .  S
C1948      C1949   1.408       .  A
C1949      C1950   1.402       .  A
C1949      N1954   1.438       .  S
C1950      H1955   1.083       .  S
N1951      H1971   1.045   1_545  S
N1951      H1972   1.046       .  S
C1953      C1956   1.402       .  A
C1953      C1960   1.409       .  A
N1954      H1969   1.046       .  S
N1954      H1970   1.046       .  S
C1956      C1957   1.405       .  A
C1956      H1961   1.084       .  S
C1957      C1958   1.415       .  A
C1957      N1962   1.438       .  S
C1958      C1959   1.406       .  A
C1959      C1960   1.404       .  A
C1959      H1963   1.084       .  S
C1960      N1964   1.438       .  S
N1962      H1965   1.046       .  S
N1962      H1966   1.045       .  S
N1964      H1967   1.046       .  S
N1964      H1968   1.046       .  S
C1973      C1974   1.416       .  A
C1973      C1978   1.408       .  A
C1974      C1975   1.408       .  A
C1974      N1979   1.438       .  S
C1975      C1976   1.405   1_455  A
C1975      H1980   1.084       .  S
C1976      C1981   1.487       .  S
C1976      C1977   1.408       .  A
C1977      C1978   1.403   1_655  A
C1977      N1982   1.438       .  S
C1978      H1983   1.083       .  S
N1979      H1999   1.045       .  S
N1979      H2000   1.046       .  S
C1981      C1984   1.404       .  A
C1981      C1988   1.411       .  A
N1982      H1997   1.045       .  S
N1982      H1998   1.046       .  S
C1984      C1985   1.404       .  A
C1984      H1989   1.084       .  S
C1985      C1986   1.412       .  A
C1985      N1990   1.438       .  S
C1986      C1987   1.404       .  A
C1987      C1988   1.405       .  A
C1987      H1991   1.084       .  S
C1988      N1992   1.438       .  S
N1990      H1993   1.046       .  S
N1990      H1994   1.046       .  S
N1992      H1995   1.046       .  S
N1992      H1996   1.046       .  S
C2001      C2002   1.412       .  A
C2001      C2006   1.405       .  A
C2002      C2003   1.411       .  A
C2002      N2007   1.437       .  S
C2003      C2004   1.405       .  A
C2003      H2008   1.084       .  S
C2004      C2009   1.488       .  S
C2004      C2005   1.410       .  A
C2005      C2006   1.407       .  A
C2005      N2010   1.438       .  S
C2006      H2011   1.084       .  S
N2007      H2027   1.045       .  S
N2007      H2028   1.046       .  S
C2009      C2012   1.404       .  A
C2009      C2016   1.411       .  A
N2010      H2025   1.046       .  S
N2010      H2026   1.046       .  S
C2012      C2013   1.412       .  A
C2012      H2017   1.083       .  S
C2013      C2014   1.412       .  A
C2013      N2018   1.435       .  S
C2014      C2015   1.404       .  A
C2015      C2016   1.404       .  A
C2015      H2019   1.084       .  S
C2016      N2020   1.439       .  S
N2018      H2021   1.046       .  S
N2018      H2022   1.045       .  S
N2020      H2023   1.046       .  S
N2020      H2024   1.046       .  S
C2029      C2030   1.420       .  A
C2029      C2034   1.407       .  A
C2030      C2031   1.407       .  A
C2030      N2035   1.438       .  S
C2031      C2032   1.400       .  A
C2031      H2036   1.084       .  S
C2032      C2037   1.488       .  S
C2032      C2033   1.411       .  A
C2033      C2034   1.406       .  A
C2033      N2038   1.438       .  S
C2034      H2039   1.083       .  S
N2035      H2055   1.046       .  S
N2035      H2056   1.046       .  S
C2037      C2040   1.402       .  A
C2037      C2044   1.411       .  A
N2038      H2053   1.046       .  S
N2038      H2054   1.046       .  S
C2040      C2041   1.404       .  A
C2040      H2045   1.084       .  S
C2041      C2042   1.415       .  A
C2041      N2046   1.438       .  S
C2042      C2043   1.408       .  A
C2043      C2044   1.409       .  A
C2043      H2047   1.083       .  S
C2044      N2048   1.438       .  S
N2046      H2049   1.046       .  S
N2046      H2050   1.045       .  S
N2048      H2051   1.046       .  S
N2048      H2052   1.046       .  S
C2057      C2058   1.423       .  A
C2057      C2062   1.408       .  A
C2058      C2059   1.403       .  A
C2058      N2063   1.439       .  S
C2059      C2060   1.396       .  A
C2059      H2064   1.084       .  S
C2060      C2065   1.478       .  S
C2060      C2061   1.408       .  A
C2061      C2062   1.408       .  A
C2061      N2066   1.438       .  S
C2062      H2067   1.083       .  S
N2063      H2083   1.046       .  S
N2063      H2084   1.046       .  S
C2065      C2068   1.400       .  A
C2065      C2072   1.409       .  A
N2066      H2081   1.046       .  S
N2066      H2082   1.046       .  S
C2068      C2069   1.406       .  A
C2068      H2073   1.084       .  S
C2069      C2070   1.418       .  A
C2069      N2074   1.438       .  S
C2070      C2071   1.408       .  A
C2071      C2072   1.398       .  A
C2071      H2075   1.084       .  S
C2072      N2076   1.433       .  S
N2074      H2077   1.046       .  S
N2074      H2078   1.046       .  S
N2076      H2079   1.045       .  S
N2076      H2080   1.046       .  S
C2085      C2086   1.422       .  A
C2085      C2090   1.410       .  A
C2086      C2087   1.412       .  A
C2086      N2091   1.438       .  S
C2087      C2088   1.403       .  A
C2087      H2092   1.084       .  S
C2088      C2093   1.489       .  S
C2088      C2089   1.408       .  A
C2089      C2090   1.404       .  A
C2089      N2094   1.439       .  S
C2090      H2095   1.083       .  S
N2091      H2111   1.046       .  S
N2091      H2112   1.046       .  S
C2093      C2096   1.404       .  A
C2093      C2100   1.410       .  A
N2094      H2109   1.045       .  S
N2094      H2110   1.046       .  S
C2096      C2097   1.407       .  A
C2096      H2101   1.084       .  S
C2097      C2098   1.412       .  A
C2097      N2102   1.437       .  S
C2098      C2099   1.407       .  A
C2099      C2100   1.408       .  A
C2099      H2103   1.084       .  S
C2100      N2104   1.438       .  S
N2102      H2105   1.046       .  S
N2102      H2106   1.046       .  S
N2104      H2107   1.046       .  S
N2104      H2108   1.046       .  S
C2113      C2114   1.415       .  A
C2113      C2118   1.403       .  A
C2114      C2115   1.411       .  A
C2114      N2119   1.438       .  S
C2115      C2116   1.401       .  A
C2115      H2120   1.083       .  S
C2116      C2121   1.484       .  S
C2116      C2117   1.410       .  A
C2117      C2118   1.405       .  A
C2117      N2122   1.438       .  S
C2118      H2123   1.084       .  S
N2119      H2139   1.044       .  S
N2119      H2140   1.046       .  S
C2121      C2124   1.402       .  A
C2121      C2128   1.409       .  A
N2122      H2137   1.046       .  S
N2122      H2138   1.046       .  S
C2124      C2125   1.404       .  A
C2124      H2129   1.084       .  S
C2125      C2126   1.409       .  A
C2125      N2130   1.438       .  S
C2126      C2127   1.406       .  A
C2127      C2128   1.412       .  A
C2127      H2131   1.084       .  S
C2128      N2132   1.437       .  S
N2130      H2133   1.046       .  S
N2130      H2134   1.045       .  S
N2132      H2135   1.046       .  S
N2132      H2136   1.045       .  S
C2141      C2142   1.421       .  A
C2141      C2146   1.403       .  A
C2142      C2143   1.406       .  A
C2142      N2147   1.439       .  S
C2143      C2144   1.401       .  A
C2143      H2148   1.084       .  S
C2144      C2149   1.485       .  S
C2144      C2145   1.410       .  A
C2145      C2146   1.406       .  A
C2145      N2150   1.438       .  S
C2146      H2151   1.084       .  S
N2147      H2167   1.043       .  S
N2147      H2168   1.046       .  S
C2149      C2152   1.404       .  A
C2149      C2156   1.416       .  A
N2150      H2165   1.046       .  S
N2150      H2166   1.045       .  S
C2152      C2153   1.406       .  A
C2152      H2157   1.084       .  S
C2153      C2154   1.407       .  A
C2153      N2158   1.437       .  S
C2154      C2155   1.405       .  A
C2155      C2156   1.406       .  A
C2155      H2159   1.084       .  S
C2156      N2160   1.438       .  S
N2158      H2161   1.046       .  S
N2158      H2162   1.046       .  S
N2160      H2163   1.046       .  S
N2160      H2164   1.044       .  S
C2169      C2170   1.417       .  A
C2169      C2174   1.408       .  A
C2170      C2171   1.407       .  A
C2170      N2175   1.438       .  S
C2171      C2172   1.401       .  A
C2171      H2176   1.084       .  S
C2172      C2177   1.486       .  S
C2172      C2173   1.409       .  A
C2173      C2174   1.408       .  A
C2173      N2178   1.438       .  S
C2174      H2179   1.084       .  S
N2175      H2195   1.046       .  S
N2175      H2196   1.046       .  S
C2177      C2180   1.400       .  A
C2177      C2184   1.408       .  A
N2178      H2193   1.046       .  S
N2178      H2194   1.046       .  S
C2180      C2181   1.406       .  A
C2180      H2185   1.084       .  S
C2181      C2182   1.422       .  A
C2181      N2186   1.438       .  S
C2182      C2183   1.411       .  A
C2183      C2184   1.408       .  A
C2183      H2187   1.083       .  S
C2184      N2188   1.437       .  S
N2186      H2189   1.046       .  S
N2186      H2190   1.046       .  S
N2188      H2191   1.045       .  S
N2188      H2192   1.046       .  S
C2197      C2198   1.407       .  A
C2197      C2202   1.406       .  A
C2198      C2199   1.404       .  A
C2198      N2203   1.437       .  S
C2199      C2200   1.403       .  A
C2199      H2204   1.084       .  S
C2200      C2205   1.481       .  S
C2200      C2201   1.409       .  A
C2201      C2202   1.409       .  A
C2201      N2206   1.437       .  S
C2202      H2207   1.084       .  S
N2203      H2223   1.046       .  S
N2203      H2224   1.046       .  S
C2205      C2208   1.402       .  A
C2205      C2212   1.410       .  A
N2206      H2221   1.046       .  S
N2206      H2222   1.045       .  S
C2208      C2209   1.410       .  A
C2208      H2213   1.084       .  S
C2209      C2210   1.412       .  A
C2209      N2214   1.437       .  S
C2210      C2211   1.401       .  A
C2211      C2212   1.404       .  A
C2211      H2215   1.084       .  S
C2212      N2216   1.438       .  S
N2214      H2217   1.046       .  S
N2214      H2218   1.045       .  S
N2216      H2219   1.046       .  S
N2216      H2220   1.045       .  S
C2225      C2226   1.416       .  A
C2225      C2230   1.407       .  A
C2226      C2227   1.406       .  A
C2226      N2231   1.438       .  S
C2227      C2228   1.402       .  A
C2227      H2232   1.084       .  S
C2228      C2233   1.487       .  S
C2228      C2229   1.410       .  A
C2229      C2230   1.408       .  A
C2229      N2234   1.438       .  S
C2230      H2235   1.084       .  S
N2231      H2251   1.045       .  S
N2231      H2252   1.046       .  S
C2233      C2236   1.400       .  A
C2233      C2240   1.409       .  A
N2234      H2249   1.046       .  S
N2234      H2250   1.046       .  S
C2236      C2237   1.407       .  A
C2236      H2241   1.084       .  S
C2237      C2238   1.422       .  A
C2237      N2242   1.438       .  S
C2238      C2239   1.409       .  A
C2239      C2240   1.407       .  A
C2239      H2243   1.083       .  S
C2240      N2244   1.438       .  S
N2242      H2245   1.046       .  S
N2242      H2246   1.046       .  S
N2244      H2247   1.046       .  S
N2244      H2248   1.046       .  S
C2253      C2254   1.412       .  A
C2253      C2258   1.401       .  A
C2254      C2255   1.409       .  A
C2254      N2259   1.438       .  S
C2255      C2256   1.402       .  A
C2255      H2260   1.084       .  S
C2256      C2261   1.482       .  S
C2256      C2257   1.412       .  A
C2257      C2258   1.407       .  A
C2257      N2262   1.438       .  S
C2258      H2263   1.084       .  S
N2259      H2279   1.045       .  S
N2259      H2280   1.046       .  S
C2261      C2264   1.403       .  A
C2261      C2268   1.411       .  A
N2262      H2277   1.046       .  S
N2262      H2278   1.044       .  S
C2264      C2265   1.402       .  A
C2264      H2269   1.084       .  S
C2265      C2266   1.405       .  A
C2265      N2270   1.432       .  S
C2266      C2267   1.406       .  A
C2267      C2268   1.410       .  A
C2267      H2271   1.084       .  S
C2268      N2272   1.438       .  S
N2270      H2273   1.046       .  S
N2270      H2274   1.046       .  S
N2272      H2275   1.046       .  S
N2272      H2276   1.044       .  S
C2281      C2282   1.417       .  A
C2281      C2286   1.407   1_655  A
C2282      C2283   1.404       .  A
C2282      N2287   1.438       .  S
C2283      C2284   1.401   1_655  A
C2283      H2288   1.084       .  S
C2284      C2289   1.483       .  S
C2284      C2285   1.409       .  A
C2285      C2286   1.405       .  A
C2285      N2290   1.438       .  S
C2286      H2291   1.083       .  S
N2287      H2307   1.046       .  S
N2287      H2308   1.046       .  S
C2289      C2292   1.402       .  A
C2289      C2296   1.408       .  A
N2290      H2305   1.046       .  S
N2290      H2306   1.046       .  S
C2292      C2293   1.406       .  A
C2292      H2297   1.084       .  S
C2293      C2294   1.417       .  A
C2293      N2298   1.438       .  S
C2294      C2295   1.408       .  A
C2295      C2296   1.404       .  A
C2295      H2299   1.083       .  S
C2296      N2300   1.438   1_455  S
N2298      H2301   1.046       .  S
N2298      H2302   1.046       .  S
N2300      H2303   1.046       .  S
N2300      H2304   1.046       .  S
C2309      C2310   1.417       .  A
C2309      C2314   1.405       .  A
C2310      C2311   1.407       .  A
C2310      N2315   1.438       .  S
C2311      C2312   1.401       .  A
C2311      H2316   1.084       .  S
C2312      C2317   1.484       .  S
C2312      C2313   1.412       .  A
C2313      C2314   1.400       .  A
C2313      N2318   1.433       .  S
C2314      H2319   1.084       .  S
N2315      H2335   1.046       .  S
N2315      H2336   1.046       .  S
C2317      C2320   1.398       .  A
C2317      C2324   1.409       .  A
N2318      H2333   1.044       .  S
N2318      H2334   1.046       .  S
C2320      C2321   1.406       .  A
C2320      H2325   1.084       .  S
C2321      C2322   1.421       .  A
C2321      N2326   1.438       .  S
C2322      C2323   1.409       .  A
C2323      C2324   1.408       .  A
C2323      H2327   1.083       .  S
C2324      N2328   1.438       .  S
N2326      H2329   1.046       .  S
N2326      H2330   1.045       .  S
N2328      H2331   1.046       .  S
N2328      H2332   1.046       .  S
C2337      C2338   1.407       .  A
C2337      C2342   1.405       .  A
C2338      C2339   1.403       .  A
C2338      N2343   1.437       .  S
C2339      C2340   1.403       .  A
C2339      H2344   1.084       .  S
C2340      C2345   1.479       .  S
C2340      C2341   1.408       .  A
C2341      C2342   1.409       .  A
C2341      N2346   1.438       .  S
C2342      H2347   1.084       .  S
N2343      H2363   1.046       .  S
N2343      H2364   1.046       .  S
C2345      C2348   1.400       .  A
C2345      C2352   1.410       .  A
N2346      H2361   1.046       .  S
N2346      H2362   1.045       .  S
C2348      C2349   1.409       .  A
C2348      H2353   1.084       .  S
C2349      C2350   1.414       .  A
C2349      N2354   1.437       .  S
C2350      C2351   1.402       .  A
C2351      C2352   1.404       .  A
C2351      H2355   1.084       .  S
C2352      N2356   1.438       .  S
N2354      H2357   1.046       .  S
N2354      H2358   1.045       .  S
N2356      H2359   1.046       .  S
N2356      H2360   1.045       .  S
C2365      C2366   1.421       .  A
C2365      C2370   1.407       .  A
C2366      C2367   1.405       .  A
C2366      N2371   1.438       .  S
C2367      C2368   1.400       .  A
C2367      H2372   1.084       .  S
C2368      C2373   1.484       .  S
C2368      C2369   1.410       .  A
C2369      C2370   1.405       .  A
C2369      N2374   1.438       .  S
C2370      H2375   1.083       .  S
N2371      H2391   1.046       .  S
N2371      H2392   1.046       .  S
C2373      C2376   1.403       .  A
C2373      C2380   1.410       .  A
N2374      H2389   1.046       .  S
N2374      H2390   1.046       .  S
C2376      C2377   1.404       .  A
C2376      H2381   1.084       .  S
C2377      C2378   1.415       .  A
C2377      N2382   1.438       .  S
C2378      C2379   1.406       .  A
C2379      C2380   1.404       .  A
C2379      H2383   1.083       .  S
C2380      N2384   1.438       .  S
N2382      H2385   1.046       .  S
N2382      H2386   1.046       .  S
N2384      H2387   1.046       .  S
N2384      H2388   1.046       .  S
C2393      C2394   1.418       .  A
C2393      C2398   1.409       .  A
C2394      C2395   1.409       .  A
C2394      N2399   1.438       .  S
C2395      C2396   1.404       .  A
C2395      H2400   1.084       .  S
C2396      C2401   1.485       .  S
C2396      C2397   1.406       .  A
C2397      C2398   1.403       .  A
C2397      N2402   1.438       .  S
C2398      H2403   1.083       .  S
N2399      H2419   1.046       .  S
N2399      H2420   1.046       .  S
C2401      C2404   1.402       .  A
C2401      C2408   1.409       .  A
N2402      H2417   1.046       .  S
N2402      H2418   1.046       .  S
C2404      C2405   1.407       .  A
C2404      H2409   1.084       .  S
C2405      C2406   1.416       .  A
C2405      N2410   1.438       .  S
C2406      C2407   1.407       .  A
C2407      C2408   1.404       .  A
C2407      H2411   1.084       .  S
C2408      N2412   1.438       .  S
N2410      H2413   1.046       .  S
N2410      H2414   1.046       .  S
N2412      H2415   1.046       .  S
N2412      H2416   1.046       .  S
C2421      C2422   1.414       .  A
C2421      C2426   1.402       .  A
C2422      C2423   1.412       .  A
C2422      N2427   1.437       .  S
C2423      C2424   1.403       .  A
C2423      H2428   1.083       .  S
C2424      C2429   1.485       .  S
C2424      C2425   1.410       .  A
C2425      C2426   1.404       .  A
C2425      N2430   1.438       .  S
C2426      H2431   1.084       .  S
N2427      H2447   1.045       .  S
N2427      H2448   1.046       .  S
C2429      C2432   1.402       .  A
C2429      C2436   1.410       .  A
N2430      H2445   1.046       .  S
N2430      H2446   1.046       .  S
C2432      C2433   1.404       .  A
C2432      H2437   1.084       .  S
C2433      C2434   1.409       .  A
C2433      N2438   1.437       .  S
C2434      C2435   1.406       .  A
C2435      C2436   1.412       .  A
C2435      H2439   1.084       .  S
C2436      N2440   1.437       .  S
N2438      H2441   1.046       .  S
N2438      H2442   1.045       .  S
N2440      H2443   1.046       .  S
N2440      H2444   1.046       .  S
C2449      C2450   1.415       .  A
C2449      C2454   1.411       .  A
C2450      C2451   1.405       .  A
C2450      N2455   1.437       .  S
C2451      C2452   1.403       .  A
C2451      H2456   1.083       .  S
C2452      C2457   1.485       .  S
C2452      C2453   1.408       .  A
C2453      C2454   1.403       .  A
C2453      N2458   1.438       .  S
C2454      H2459   1.083       .  S
N2455      H2475   1.046       .  S
N2455      H2476   1.046       .  S
C2457      C2460   1.405       .  A
C2457      C2464   1.409       .  A
N2458      H2473   1.046       .  S
N2458      H2474   1.046       .  S
C2460      C2461   1.406       .  A
C2460      H2465   1.084       .  S
C2461      C2462   1.412       .  A
C2461      N2466   1.437       .  S
C2462      C2463   1.406       .  A
C2463      C2464   1.402       .  A
C2463      H2467   1.084       .  S
C2464      N2468   1.438       .  S
N2466      H2469   1.046       .  S
N2466      H2470   1.046       .  S
N2468      H2471   1.046       .  S
N2468      H2472   1.046       .  S
C2477      C2478   1.417       .  A
C2477      C2482   1.407       .  A
C2478      C2479   1.407       .  A
C2478      N2483   1.438       .  S
C2479      C2480   1.403       .  A
C2479      H2484   1.084       .  S
C2480      C2485   1.491       .  S
C2480      C2481   1.411       .  A
C2481      C2482   1.406       .  A
C2481      N2486   1.438       .  S
C2482      H2487   1.083       .  S
N2483      H2503   1.045       .  S
N2483      H2504   1.046       .  S
C2485      C2488   1.402       .  A
C2485      C2492   1.411       .  A
N2486      H2501   1.046       .  S
N2486      H2502   1.046       .  S
C2488      C2489   1.407       .  A
C2488      H2493   1.084       .  S
C2489      C2490   1.420       .  A
C2489      N2494   1.438       .  S
C2490      C2491   1.408       .  A
C2491      C2492   1.407       .  A
C2491      H2495   1.083       .  S
C2492      N2496   1.438       .  S
N2494      H2497   1.046       .  S
N2494      H2498   1.046       .  S
N2496      H2499   1.046       .  S
N2496      H2500   1.046       .  S
C2505      C2506   1.419       .  A
C2505      C2510   1.409   1_545  A
C2506      C2507   1.408       .  A
C2506      N2511   1.438       .  S
C2507      C2508   1.400       .  A
C2507      H2512   1.084       .  S
C2508      C2513   1.478       .  S
C2508      C2509   1.406   1_545  A
C2509      C2510   1.405       .  A
C2509      N2514   1.438       .  S
C2510      H2515   1.083       .  S
N2511      H2531   1.046       .  S
N2511      H2532   1.046       .  S
C2513      C2516   1.400       .  A
C2513      C2520   1.406       .  A
N2514      H2529   1.046       .  S
N2514      H2530   1.045       .  S
C2516      C2517   1.408       .  A
C2516      H2521   1.084       .  S
C2517      C2518   1.418       .  A
C2517      N2522   1.438       .  S
C2518      C2519   1.411       .  A
C2519      C2520   1.404       .  A
C2519      H2523   1.083       .  S
C2520      N2524   1.438       .  S
N2522      H2525   1.046       .  S
N2522      H2526   1.046       .  S
N2524      H2527   1.046       .  S
N2524      H2528   1.045       .  S
C2533      C2534   1.411       .  A
C2533      C2538   1.406       .  A
C2534      C2535   1.405       .  A
C2534      N2539   1.438       .  S
C2535      C2536   1.403       .  A
C2535      H2540   1.084       .  S
C2536      C2541   1.491       .  S
C2536      C2537   1.413       .  A
C2537      C2538   1.414       .  A
C2537      N2542   1.437       .  S
C2538      H2543   1.084       .  S
N2539      H2559   1.046       .  S
N2539      H2560   1.046       .  S
C2541      C2544   1.402       .  A
C2541      C2548   1.413       .  A
N2542      H2557   1.046       .  S
N2542      H2558   1.045       .  S
C2544      C2545   1.407       .  A
C2544      H2549   1.084       .  S
C2545      C2546   1.412       .  A
C2545      N2550   1.438       .  S
C2546      C2547   1.404       .  A
C2547      C2548   1.412       .  A
C2547      H2551   1.084       .  S
C2548      N2552   1.437       .  S
N2550      H2553   1.046       .  S
N2550      H2554   1.046       .  S
N2552      H2555   1.046       .  S
N2552      H2556   1.046       .  S
C2561      C2562   1.408       .  A
C2561      C2566   1.401       .  A
C2562      C2563   1.405   1_545  A
C2562      N2567   1.438       .  S
C2563      C2564   1.404       .  A
C2563      H2568   1.084       .  S
C2564      C2569   1.487       .  S
C2564      C2565   1.412   1_565  A
C2565      C2566   1.408       .  A
C2565      N2570   1.437       .  S
C2566      H2571   1.084       .  S
N2567      H2587   1.046       .  S
N2567      H2588   1.046   1_545  S
C2569      C2572   1.402   1_565  A
C2569      C2576   1.411       .  A
N2570      H2585   1.046       .  S
N2570      H2586   1.046   1_545  S
C2572      C2573   1.400       .  A
C2572      H2577   1.084       .  S
C2573      C2574   1.412   1_545  A
C2573      N2578   1.433       .  S
C2574      C2575   1.408       .  A
C2575      C2576   1.412       .  A
C2575      H2579   1.083       .  S
C2576      N2580   1.437       .  S
N2578      H2581   1.046       .  S
N2578      H2582   1.046       .  S
N2580      H2583   1.046       .  S
N2580      H2584   1.046       .  S
C2589      C2590   1.422       .  A
C2589      C2594   1.403       .  A
C2590      C2591   1.407       .  A
C2590      N2595   1.439       .  S
C2591      C2592   1.401       .  A
C2591      H2596   1.084       .  S
C2592      C2597   1.488       .  S
C2592      C2593   1.411       .  A
C2593      C2594   1.408       .  A
C2593      N2598   1.438       .  S
C2594      H2599   1.084       .  S
N2595      H2615   1.042       .  S
N2595      H2616   1.045       .  S
C2597      C2600   1.402       .  A
C2597      C2604   1.412       .  A
N2598      H2613   1.046       .  S
N2598      H2614   1.045       .  S
C2600      C2601   1.411       .  A
C2600      H2605   1.084       .  S
C2601      C2602   1.413       .  A
C2601      N2606   1.438       .  S
C2602      C2603   1.403       .  A
C2603      C2604   1.409       .  A
C2603      H2607   1.084       .  S
C2604      N2608   1.438       .  S
N2606      H2609   1.046       .  S
N2606      H2610   1.045       .  S
N2608      H2611   1.046       .  S
N2608      H2612   1.045       .  S
C2617      C2618   1.409       .  A
C2617      C2622   1.402       .  A
C2618      C2619   1.407       .  A
C2618      N2623   1.437   1_556  S
C2619      C2620   1.404       .  A
C2619      H2624   1.084   1_556  S
C2620      C2625   1.482       .  S
C2620      C2621   1.410       .  A
C2621      C2622   1.405       .  A
C2621      N2626   1.438       .  S
C2622      H2627   1.084       .  S
N2623      H2643   1.045       .  S
N2623      H2644   1.046       .  S
C2625      C2628   1.401       .  A
C2625      C2632   1.409   1_556  A
N2626      H2641   1.046       .  S
N2626      H2642   1.045       .  S
C2628      C2629   1.411   1_455  A
C2628      H2633   1.084       .  S
C2629      C2630   1.415       .  A
C2629      N2634   1.434       .  S
C2630      C2631   1.406   1_556  A
C2631      C2632   1.402   1_655  A
C2631      H2635   1.084       .  S
C2632      N2636   1.439       .  S
N2634      H2637   1.045       .  S
N2634      H2638   1.045       .  S
N2636      H2639   1.046       .  S
N2636      H2640   1.046       .  S
C2645      C2646   1.411   1_556  A
C2645      C2650   1.406       .  A
C2646      C2647   1.401   1_565  A
C2646      N2651   1.433       .  S
C2647      C2648   1.401   1_554  A
C2647      H2652   1.084       .  S
C2648      C2653   1.484       .  S
C2648      C2649   1.411       .  A
C2649      C2650   1.412   1_545  A
C2649      N2654   1.437       .  S
C2650      H2655   1.084       .  S
N2651      H2671   1.046       .  S
N2651      H2672   1.046       .  S
C2653      C2656   1.401       .  A
C2653      C2660   1.412   1_556  A
N2654      H2669   1.046   1_545  S
N2654      H2670   1.045       .  S
C2656      C2657   1.401       .  A
C2656      H2661   1.084       .  S
C2657      C2658   1.409       .  A
C2657      N2662   1.433       .  S
C2658      C2659   1.403   1_556  A
C2659      C2660   1.411       .  A
C2659      H2663   1.084       .  S
C2660      N2664   1.437       .  S
N2662      H2665   1.045       .  S
N2662      H2666   1.046       .  S
N2664      H2667   1.046       .  S
N2664      H2668   1.046       .  S
C2673      C2674   1.421       .  A
C2673      C2678   1.411       .  A
C2674      C2675   1.406       .  A
C2674      N2679   1.438       .  S
C2675      C2676   1.400       .  A
C2675      H2680   1.084       .  S
C2676      C2681   1.485       .  S
C2676      C2677   1.407       .  A
C2677      C2678   1.408       .  A
C2677      N2682   1.438       .  S
C2678      H2683   1.083       .  S
N2679      H2699   1.045       .  S
N2679      H2700   1.046       .  S
C2681      C2684   1.403       .  A
C2681      C2688   1.407       .  A
N2682      H2697   1.046       .  S
N2682      H2698   1.046       .  S
C2684      C2685   1.411       .  A
C2684      H2689   1.084       .  S
C2685      C2686   1.421       .  A
C2685      N2690   1.438       .  S
C2686      C2687   1.409       .  A
C2687      C2688   1.402       .  A
C2687      H2691   1.083       .  S
C2688      N2692   1.438       .  S
N2690      H2693   1.046       .  S
N2690      H2694   1.045       .  S
N2692      H2695   1.046       .  S
N2692      H2696   1.046       .  S
C2701      C2702   1.410       .  A
C2701      C2706   1.402       .  A
C2702      C2703   1.410       .  A
C2702      N2707   1.437       .  S
C2703      C2704   1.404       .  A
C2703      H2708   1.084       .  S
C2704      C2709   1.491       .  S
C2704      C2705   1.412       .  A
C2705      C2706   1.408       .  A
C2705      N2710   1.437       .  S
C2706      H2711   1.084       .  S
N2707      H2727   1.046       .  S
N2707      H2728   1.046       .  S
C2709      C2712   1.401       .  A
C2709      C2716   1.412       .  A
N2710      H2725   1.046       .  S
N2710      H2726   1.045       .  S
C2712      C2713   1.403   1_565  A
C2712      H2717   1.084       .  S
C2713      C2714   1.415       .  A
C2713      N2718   1.439       .  S
C2714      C2715   1.407       .  A
C2715      C2716   1.415   1_545  A
C2715      H2719   1.083       .  S
C2716      N2720   1.436       .  S
N2718      H2721   1.046       .  S
N2718      H2722   1.046       .  S
N2720      H2723   1.046       .  S
N2720      H2724   1.046       .  S
C2729      C2730   1.419       .  A
C2729      C2734   1.407       .  A
C2730      C2731   1.406       .  A
C2730      N2735   1.439       .  S
C2731      C2732   1.400       .  A
C2731      H2736   1.084       .  S
C2732      C2737   1.483       .  S
C2732      C2733   1.409       .  A
C2733      C2734   1.407       .  A
C2733      N2738   1.438       .  S
C2734      H2739   1.083       .  S
N2735      H2755   1.046       .  S
N2735      H2756   1.046       .  S
C2737      C2740   1.400       .  A
C2737      C2744   1.411       .  A
N2738      H2753   1.046       .  S
N2738      H2754   1.046       .  S
C2740      C2741   1.405   1_655  A
C2740      H2745   1.084       .  S
C2741      C2742   1.416       .  A
C2741      N2746   1.439       .  S
C2742      C2743   1.403       .  A
C2743      C2744   1.407   1_455  A
C2743      H2747   1.084       .  S
C2744      N2748   1.438       .  S
N2746      H2749   1.046       .  S
N2746      H2750   1.045       .  S
N2748      H2751   1.046   1_655  S
N2748      H2752   1.046       .  S
C2757      C2758   1.414       .  A
C2757      C2762   1.404       .  A
C2758      C2759   1.404       .  A
C2758      N2763   1.439       .  S
C2759      C2760   1.403       .  A
C2759      H2764   1.083       .  S
C2760      C2765   1.493       .  S
C2760      C2761   1.414       .  A
C2761      C2762   1.411       .  A
C2761      N2766   1.437       .  S
C2762      H2767   1.083       .  S
N2763      H2783   1.046       .  S
N2763      H2784   1.046       .  S
C2765      C2768   1.405       .  A
C2765      C2772   1.415       .  A
N2766      H2781   1.046       .  S
N2766      H2782   1.045       .  S
C2768      C2769   1.406       .  A
C2768      H2773   1.083       .  S
C2769      C2770   1.408       .  A
C2769      N2774   1.438       .  S
C2770      C2771   1.401       .  A
C2771      C2772   1.409       .  A
C2771      H2775   1.084       .  S
C2772      N2776   1.437       .  S
N2774      H2777   1.046       .  S
N2774      H2778   1.046       .  S
N2776      H2779   1.046       .  S
N2776      H2780   1.045       .  S
C2785      C2786   1.406       .  A
C2785      C2790   1.403       .  A
C2786      C2787   1.406       .  A
C2786      N2791   1.437       .  S
C2787      C2788   1.404       .  A
C2787      H2792   1.084       .  S
C2788      C2793   1.479       .  S
C2788      C2789   1.407       .  A
C2789      C2790   1.405       .  A
C2789      N2794   1.437       .  S
C2790      H2795   1.082       .  S
N2791      H2811   1.045       .  S
N2791      H2812   1.046       .  S
C2793      C2796   1.403       .  A
C2793      C2800   1.406       .  A
N2794      H2809   1.046       .  S
N2794      H2810   1.045       .  S
C2796      C2797   1.405       .  A
C2796      H2801   1.084       .  S
C2797      C2798   1.409       .  A
C2797      N2802   1.437       .  S
C2798      C2799   1.407       .  A
C2799      C2800   1.407       .  A
C2799      H2803   1.084       .  S
C2800      N2804   1.437       .  S
N2802      H2805   1.046       .  S
N2802      H2806   1.045       .  S
N2804      H2807   1.046       .  S
N2804      H2808   1.045       .  S
C2813      C2814   1.410   1_556  A
C2813      C2818   1.403       .  A
C2814      C2815   1.406       .  A
C2814      N2819   1.438       .  S
C2815      C2816   1.404   1_554  A
C2815      H2820   1.084       .  S
C2816      C2821   1.487   1_565  S
C2816      C2817   1.411       .  A
C2817      C2818   1.408       .  A
C2817      N2822   1.438       .  S
C2818      H2823   1.084       .  S
N2819      H2839   1.045       .  S
N2819      H2840   1.046       .  S
C2821      C2824   1.405       .  A
C2821      C2828   1.410   1_556  A
N2822      H2837   1.046       .  S
N2822      H2838   1.045   1_565  S
C2824      C2825   1.413       .  A
C2824      H2829   1.083       .  S
C2825      C2826   1.415       .  A
C2825      N2830   1.437       .  S
C2826      C2827   1.404   1_556  A
C2827      C2828   1.401       .  A
C2827      H2831   1.084       .  S
C2828      N2832   1.439       .  S
N2830      H2833   1.046       .  S
N2830      H2834   1.045       .  S
N2832      H2835   1.046       .  S
N2832      H2836   1.046       .  S
C2841      C2842   1.411   1_556  A
C2841      C2846   1.404       .  A
C2842      C2843   1.398       .  A
C2842      N2847   1.433       .  S
C2843      C2844   1.396   1_554  A
C2843      H2848   1.084       .  S
C2844      C2849   1.471       .  S
C2844      C2845   1.410       .  A
C2845      C2846   1.407       .  A
C2845      N2850   1.438       .  S
C2846      H2851   1.084       .  S
N2847      H2867   1.046       .  S
N2847      H2868   1.046       .  S
C2849      C2852   1.399       .  A
C2849      C2856   1.405       .  A
N2850      H2865   1.046       .  S
N2850      H2866   1.045       .  S
C2852      C2853   1.403       .  A
C2852      H2857   1.084       .  S
C2853      C2854   1.416       .  A
C2853      N2858   1.438       .  S
C2854      C2855   1.408       .  A
C2855      C2856   1.403       .  A
C2855      H2859   1.084   1_556  S
C2856      N2860   1.438   1_556  S
N2858      H2861   1.046       .  S
N2858      H2862   1.046       .  S
N2860      H2863   1.046       .  S
N2860      H2864   1.046   1_554  S
C2869      C2870   1.408   1_556  A
C2869      C2874   1.402       .  A
C2870      C2871   1.404       .  A
C2870      N2875   1.438       .  S
C2871      C2872   1.405   1_554  A
C2871      H2876   1.084       .  S
C2872      C2877   1.491       .  S
C2872      C2873   1.414       .  A
C2873      C2874   1.410       .  A
C2873      N2878   1.437       .  S
C2874      H2879   1.084       .  S
N2875      H2895   1.046       .  S
N2875      H2896   1.046       .  S
C2877      C2880   1.405   1_556  A
C2877      C2884   1.410       .  A
N2878      H2893   1.046       .  S
N2878      H2894   1.045       .  S
C2880      C2881   1.415   1_554  A
C2880      H2885   1.083       .  S
C2881      C2882   1.418       .  A
C2881      N2886   1.437   1_556  S
C2882      C2883   1.408       .  A
C2883      C2884   1.400       .  A
C2883      H2887   1.083       .  S
C2884      N2888   1.439       .  S
N2886      H2889   1.046       .  S
N2886      H2890   1.046       .  S
N2888      H2891   1.046       .  S
N2888      H2892   1.046       .  S
C2897      C2898   1.419       .  A
C2897      C2902   1.408       .  A
C2898      C2899   1.408       .  A
C2898      N2903   1.438       .  S
C2899      C2900   1.401       .  A
C2899      H2904   1.084       .  S
C2900      C2905   1.477       .  S
C2900      C2901   1.406       .  A
C2901      C2902   1.400       .  A
C2901      N2906   1.438       .  S
C2902      H2907   1.083       .  S
N2903      H2923   1.046       .  S
N2903      H2924   1.046       .  S
C2905      C2908   1.400       .  A
C2905      C2912   1.408       .  A
N2906      H2921   1.046       .  S
N2906      H2922   1.046       .  S
C2908      C2909   1.402       .  A
C2908      H2913   1.084       .  S
C2909      C2910   1.414       .  A
C2909      N2914   1.438       .  S
C2910      C2911   1.407       .  A
C2911      C2912   1.406       .  A
C2911      H2915   1.084       .  S
C2912      N2916   1.438       .  S
N2914      H2917   1.046       .  S
N2914      H2918   1.046       .  S
N2916      H2919   1.046       .  S
N2916      H2920   1.046       .  S
C2925      C2926   1.410       .  A
C2925      C2930   1.401       .  A
C2926      C2927   1.405       .  A
C2926      N2931   1.438       .  S
C2927      C2928   1.403       .  A
C2927      H2932   1.084       .  S
C2928      C2933   1.486       .  S
C2928      C2929   1.412       .  A
C2929      C2930   1.407       .  A
C2929      N2934   1.437       .  S
C2930      H2935   1.084       .  S
N2931      H2951   1.046       .  S
N2931      H2952   1.046       .  S
C2933      C2936   1.403       .  A
C2933      C2940   1.411       .  A
N2934      H2949   1.046       .  S
N2934      H2950   1.045       .  S
C2936      C2937   1.402       .  A
C2936      H2941   1.084       .  S
C2937      C2938   1.410       .  A
C2937      N2942   1.438       .  S
C2938      C2939   1.405       .  A
C2939      C2940   1.411       .  A
C2939      H2943   1.084       .  S
C2940      N2944   1.437       .  S
N2942      H2945   1.046       .  S
N2942      H2946   1.046       .  S
N2944      H2947   1.046       .  S
N2944      H2948   1.045       .  S
C2953      C2954   1.417       .  A
C2953      C2958   1.410       .  A
C2954      C2955   1.412       .  A
C2954      N2959   1.438       .  S
C2955      C2956   1.404       .  A
C2955      H2960   1.084       .  S
C2956      C2961   1.483       .  S
C2956      C2957   1.404       .  A
C2957      C2958   1.403       .  A
C2957      N2962   1.438       .  S
C2958      H2963   1.083       .  S
N2959      H2979   1.045       .  S
N2959      H2980   1.046       .  S
C2961      C2964   1.401       .  A
C2961      C2968   1.408       .  A
N2962      H2977   1.046       .  S
N2962      H2978   1.046       .  S
C2964      C2965   1.405       .  A
C2964      H2969   1.084       .  S
C2965      C2966   1.413       .  A
C2965      N2970   1.432       .  S
C2966      C2967   1.409       .  A
C2967      C2968   1.409       .  A
C2967      H2971   1.084       .  S
C2968      N2972   1.437       .  S
N2970      H2973   1.046       .  S
N2970      H2974   1.046       .  S
N2972      H2975   1.046       .  S
N2972      H2976   1.046       .  S
C2981      C2982   1.418       .  A
C2981      C2986   1.410   1_455  A
C2982      C2983   1.403   1_455  A
C2982      N2987   1.438       .  S
C2983      C2984   1.398       .  A
C2983      H2988   1.084       .  S
C2984      C2989   1.473       .  S
C2984      C2985   1.412       .  A
C2985      C2986   1.400       .  A
C2985      N2990   1.439       .  S
C2986      H2991   1.084       .  S
N2987      H3007   1.046       .  S
N2987      H3008   1.046       .  S
C2989      C2992   1.402       .  A
C2989      C2996   1.404       .  A
N2990      H3005   1.046       .  S
N2990      H3006   1.043       .  S
C2992      C2993   1.407       .  A
C2992      H2997   1.084       .  S
C2993      C2994   1.414       .  A
C2993      N2998   1.437       .  S
C2994      C2995   1.405       .  A
C2995      C2996   1.401       .  A
C2995      H2999   1.084       .  S
C2996      N3000   1.438       .  S
N2998      H3001   1.046       .  S
N2998      H3002   1.046       .  S
N3000      H3003   1.045       .  S
N3000      H3004   1.045       .  S
C3009      C3010   1.408       .  A
C3009      C3014   1.402       .  A
C3010      C3011   1.407       .  A
C3010      N3015   1.437   1_455  S
C3011      C3012   1.405       .  A
C3011      H3016   1.084       .  S
C3012      C3017   1.486       .  S
C3012      C3013   1.412       .  A
C3013      C3014   1.406       .  A
C3013      N3018   1.438       .  S
C3014      H3019   1.084       .  S
N3015      H3035   1.045   1_655  S
N3015      H3036   1.046       .  S
C3017      C3020   1.404       .  A
C3017      C3024   1.409       .  A
N3018      H3033   1.046       .  S
N3018      H3034   1.046       .  S
C3020      C3021   1.412       .  A
C3020      H3025   1.084       .  S
C3021      C3022   1.417       .  A
C3021      N3026   1.437       .  S
C3022      C3023   1.406       .  A
C3023      C3024   1.402       .  A
C3023      H3027   1.083       .  S
C3024      N3028   1.439       .  S
N3026      H3029   1.046       .  S
N3026      H3030   1.045       .  S
N3028      H3031   1.046   1_455  S
N3028      H3032   1.046       .  S
C3037      C3038   1.415       .  A
C3037      C3042   1.404       .  A
C3038      C3039   1.410       .  A
C3038      N3043   1.438       .  S
C3039      C3040   1.401       .  A
C3039      H3044   1.084       .  S
C3040      C3045   1.485       .  S
C3040      C3041   1.411       .  A
C3041      C3042   1.407       .  A
C3041      N3046   1.439       .  S
C3042      H3047   1.084       .  S
N3043      H3063   1.045       .  S
N3043      H3064   1.046       .  S
C3045      C3048   1.402       .  A
C3045      C3052   1.410       .  A
N3046      H3061   1.046       .  S
N3046      H3062   1.045       .  S
C3048      C3049   1.411       .  A
C3048      H3053   1.083       .  S
C3049      C3050   1.417       .  A
C3049      N3054   1.438       .  S
C3050      C3051   1.404       .  A
C3051      C3052   1.405       .  A
C3051      H3055   1.084       .  S
C3052      N3056   1.439       .  S
N3054      H3057   1.046       .  S
N3054      H3058   1.045       .  S
N3056      H3059   1.046       .  S
N3056      H3060   1.045       .  S
C3065      C3066   1.412       .  A
C3065      C3070   1.404       .  A
C3066      C3067   1.412       .  A
C3066      N3071   1.437       .  S
C3067      C3068   1.405       .  A
C3067      H3072   1.083       .  S
C3068      C3073   1.485       .  S
C3068      C3069   1.409       .  A
C3069      C3070   1.403       .  A
C3069      N3074   1.439       .  S
C3070      H3075   1.084       .  S
N3071      H3091   1.046       .  S
N3071      H3092   1.046   1_556  S
C3073      C3076   1.404       .  A
C3073      C3080   1.409   1_556  A
N3074      H3089   1.046       .  S
N3074      H3090   1.046       .  S
C3076      C3077   1.413       .  A
C3076      H3081   1.083       .  S
C3077      C3078   1.414       .  A
C3077      N3082   1.435       .  S
C3078      C3079   1.404   1_556  A
C3079      C3080   1.404       .  A
C3079      H3083   1.084       .  S
C3080      N3084   1.439       .  S
N3082      H3085   1.046       .  S
N3082      H3086   1.045       .  S
N3084      H3087   1.045       .  S
N3084      H3088   1.046       .  S
C3093      C3094   1.413       .  A
C3093      C3098   1.408       .  A
C3094      C3095   1.404       .  A
C3094      N3099   1.433   1_556  S
C3095      C3096   1.401       .  A
C3095      H3100   1.084       .  S
C3096      C3101   1.483       .  S
C3096      C3097   1.409       .  A
C3097      C3098   1.408       .  A
C3097      N3102   1.438       .  S
C3098      H3103   1.084       .  S
N3099      H3119   1.046   1_554  S
N3099      H3120   1.045       .  S
C3101      C3104   1.401       .  A
C3101      C3108   1.406       .  A
N3102      H3117   1.046       .  S
N3102      H3118   1.045       .  S
C3104      C3105   1.410       .  A
C3104      H3109   1.084       .  S
C3105      C3106   1.418       .  A
C3105      N3110   1.438       .  S
C3106      C3107   1.411       .  A
C3107      C3108   1.407       .  A
C3107      H3111   1.083       .  S
C3108      N3112   1.438       .  S
N3110      H3113   1.046       .  S
N3110      H3114   1.046       .  S
N3112      H3115   1.046   1_556  S
N3112      H3116   1.045       .  S
C3121      C3122   1.417       .  A
C3121      C3126   1.406       .  A
C3122      C3123   1.404       .  A
C3122      N3127   1.438       .  S
C3123      C3124   1.401       .  A
C3123      H3128   1.084       .  S
C3124      C3129   1.480       .  S
C3124      C3125   1.409       .  A
C3125      C3126   1.402       .  A
C3125      N3130   1.438   1_556  S
C3126      H3131   1.084   1_556  S
N3127      H3147   1.045       .  S
N3127      H3148   1.046       .  S
C3129      C3132   1.399       .  A
C3129      C3136   1.411       .  A
N3130      H3145   1.046       .  S
N3130      H3146   1.046       .  S
C3132      C3133   1.401       .  A
C3132      H3137   1.084   1_556  S
C3133      C3134   1.416       .  A
C3133      N3138   1.439   1_556  S
C3134      C3135   1.404       .  A
C3135      C3136   1.406       .  A
C3135      H3139   1.084       .  S
C3136      N3140   1.438       .  S
N3138      H3141   1.046       .  S
N3138      H3142   1.046       .  S
N3140      H3143   1.046       .  S
N3140      H3144   1.046       .  S
C3149      C3150   1.411       .  A
C3149      C3154   1.404       .  A
C3150      C3151   1.404       .  A
C3150      N3155   1.438       .  S
C3151      C3152   1.401       .  A
C3151      H3156   1.084       .  S
C3152      C3157   1.484   1_455  S
C3152      C3153   1.412   1_556  A
C3153      C3154   1.412   1_554  A
C3153      N3158   1.437       .  S
C3154      H3159   1.083   1_556  S
N3155      H3175   1.046       .  S
N3155      H3176   1.046       .  S
C3157      C3160   1.405       .  A
C3157      C3164   1.408       .  A
N3158      H3173   1.046       .  S
N3158      H3174   1.045       .  S
C3160      C3161   1.415       .  A
C3160      H3165   1.083       .  S
C3161      C3162   1.414       .  A
C3161      N3166   1.437       .  S
C3162      C3163   1.405       .  A
C3163      C3164   1.402       .  A
C3163      H3167   1.084       .  S
C3164      N3168   1.439       .  S
N3166      H3169   1.046       .  S
N3166      H3170   1.045       .  S
N3168      H3171   1.046       .  S
N3168      H3172   1.045   1_656  S
C3177      C3178   1.417       .  A
C3177      C3182   1.408       .  A
C3178      C3179   1.411       .  A
C3178      N3183   1.438       .  S
C3179      C3180   1.405       .  A
C3179      H3184   1.083       .  S
C3180      C3185   1.495       .  S
C3180      C3181   1.411       .  A
C3181      C3182   1.406       .  A
C3181      N3186   1.438       .  S
C3182      H3187   1.083       .  S
N3183      H3203   1.046       .  S
N3183      H3204   1.046       .  S
C3185      C3188   1.405       .  A
C3185      C3192   1.412       .  A
N3186      H3201   1.046       .  S
N3186      H3202   1.046       .  S
C3188      C3189   1.407       .  A
C3188      H3193   1.084       .  S
C3189      C3190   1.414       .  A
C3189      N3194   1.438       .  S
C3190      C3191   1.406       .  A
C3191      C3192   1.409       .  A
C3191      H3195   1.084       .  S
C3192      N3196   1.437       .  S
N3194      H3197   1.046       .  S
N3194      H3198   1.046       .  S
N3196      H3199   1.046       .  S
N3196      H3200   1.045       .  S
C3205      C3206   1.409       .  A
C3205      C3210   1.405       .  A
C3206      C3207   1.408       .  A
C3206      N3211   1.437       .  S
C3207      C3208   1.404       .  A
C3207      H3212   1.084       .  S
C3208      C3213   1.484       .  S
C3208      C3209   1.409       .  A
C3209      C3210   1.410       .  A
C3209      N3214   1.437       .  S
C3210      H3215   1.084       .  S
N3211      H3231   1.045       .  S
N3211      H3232   1.046       .  S
C3213      C3216   1.402       .  A
C3213      C3220   1.409       .  A
N3214      H3229   1.046       .  S
N3214      H3230   1.045       .  S
C3216      C3217   1.405       .  A
C3216      H3221   1.084       .  S
C3217      C3218   1.410       .  A
C3217      N3222   1.437       .  S
C3218      C3219   1.407       .  A
C3219      C3220   1.411       .  A
C3219      H3223   1.084       .  S
C3220      N3224   1.437       .  S
N3222      H3225   1.046       .  S
N3222      H3226   1.045       .  S
N3224      H3227   1.046       .  S
N3224      H3228   1.045       .  S
C3233      C3234   1.419       .  A
C3233      C3238   1.409       .  A
C3234      C3235   1.414       .  A
C3234      N3239   1.437       .  S
C3235      C3236   1.402       .  A
C3235      H3240   1.083       .  S
C3236      C3241   1.485       .  S
C3236      C3237   1.408       .  A
C3237      C3238   1.403       .  A
C3237      N3242   1.439       .  S
C3238      H3243   1.083       .  S
N3239      H3259   1.046       .  S
N3239      H3260   1.046       .  S
C3241      C3244   1.401       .  A
C3241      C3248   1.412       .  A
N3242      H3257   1.046       .  S
N3242      H3258   1.045       .  S
C3244      C3245   1.404       .  A
C3244      H3249   1.084       .  S
C3245      C3246   1.409       .  A
C3245      N3250   1.438       .  S
C3246      C3247   1.404       .  A
C3247      C3248   1.412       .  A
C3247      H3251   1.084       .  S
C3248      N3252   1.438       .  S
N3250      H3253   1.046       .  S
N3250      H3254   1.046       .  S
N3252      H3255   1.046       .  S
N3252      H3256   1.045       .  S
C3261      C3262   1.414       .  A
C3261      C3266   1.403       .  A
C3262      C3263   1.415       .  A
C3262      N3267   1.437       .  S
C3263      C3264   1.405       .  A
C3263      H3268   1.083       .  S
C3264      C3269   1.484   1_545  S
C3264      C3265   1.408       .  A
C3265      C3266   1.401       .  A
C3265      N3270   1.439       .  S
C3266      H3271   1.084       .  S
N3267      H3287   1.045       .  S
N3267      H3288   1.046       .  S
C3269      C3272   1.399       .  A
C3269      C3276   1.412       .  A
N3270      H3285   1.046       .  S
N3270      H3286   1.045       .  S
C3272      C3273   1.402       .  A
C3272      H3277   1.084       .  S
C3273      C3274   1.414       .  A
C3273      N3278   1.439       .  S
C3274      C3275   1.405       .  A
C3275      C3276   1.414       .  A
C3275      H3279   1.083       .  S
C3276      N3280   1.437       .  S
N3278      H3281   1.046       .  S
N3278      H3282   1.046       .  S
N3280      H3283   1.046       .  S
N3280      H3284   1.045   1_565  S
C3289      C3290   1.408       .  A
C3289      C3294   1.405   1_565  A
C3290      C3291   1.409       .  A
C3290      N3295   1.437       .  S
C3291      C3292   1.406   1_565  A
C3291      H3296   1.084       .  S
C3292      C3297   1.488       .  S
C3292      C3293   1.410       .  A
C3293      C3294   1.408       .  A
C3293      N3298   1.437       .  S
C3294      H3299   1.084       .  S
N3295      H3315   1.046       .  S
N3295      H3316   1.046       .  S
C3297      C3300   1.404       .  A
C3297      C3304   1.410       .  A
N3298      H3313   1.046       .  S
N3298      H3314   1.045       .  S
C3300      C3301   1.407       .  A
C3300      H3305   1.084       .  S
C3301      C3302   1.410       .  A
C3301      N3306   1.437       .  S
C3302      C3303   1.406       .  A
C3303      C3304   1.410       .  A
C3303      H3307   1.084       .  S
C3304      N3308   1.437       .  S
N3306      H3309   1.046       .  S
N3306      H3310   1.045       .  S
N3308      H3311   1.046       .  S
N3308      H3312   1.045       .  S
C3317      C3318   1.408       .  A
C3317      C3322   1.406       .  A
C3318      C3319   1.400       .  A
C3318      N3323   1.433       .  S
C3319      C3320   1.402       .  A
C3319      H3324   1.084       .  S
C3320      C3325   1.487       .  S
C3320      C3321   1.412       .  A
C3321      C3322   1.413       .  A
C3321      N3326   1.437       .  S
C3322      H3327   1.084       .  S
N3323      H3343   1.046       .  S
N3323      H3344   1.046       .  S
C3325      C3328   1.402       .  A
C3325      C3332   1.412       .  A
N3326      H3341   1.045       .  S
N3326      H3342   1.045       .  S
C3328      C3329   1.406       .  A
C3328      H3333   1.084       .  S
C3329      C3330   1.412       .  A
C3329      N3334   1.438       .  S
C3330      C3331   1.402       .  A
C3331      C3332   1.409       .  A
C3331      H3335   1.084       .  S
C3332      N3336   1.437       .  S
N3334      H3337   1.046       .  S
N3334      H3338   1.045       .  S
N3336      H3339   1.046       .  S
N3336      H3340   1.045       .  S
C3345      C3346   1.411       .  A
C3345      C3350   1.404       .  A
C3346      C3347   1.403       .  A
C3346      N3351   1.438   1_545  S
C3347      C3348   1.401       .  A
C3347      H3352   1.084       .  S
C3348      C3353   1.487       .  S
C3348      C3349   1.413       .  A
C3349      C3350   1.414       .  A
C3349      N3354   1.437       .  S
C3350      H3355   1.084       .  S
N3351      H3371   1.045       .  S
N3351      H3372   1.046       .  S
C3353      C3356   1.403       .  A
C3353      C3360   1.408       .  A
N3354      H3369   1.046       .  S
N3354      H3370   1.045       .  S
C3356      C3357   1.415       .  A
C3356      H3361   1.083       .  S
C3357      C3358   1.420       .  A
C3357      N3362   1.437       .  S
C3358      C3359   1.406       .  A
C3359      C3360   1.402       .  A
C3359      H3363   1.083       .  S
C3360      N3364   1.439       .  S
N3362      H3365   1.046       .  S
N3362      H3366   1.045       .  S
N3364      H3367   1.046       .  S
N3364      H3368   1.046       .  S
C3373      C3374   1.417       .  A
C3373      C3378   1.404       .  A
C3374      C3375   1.409       .  A
C3374      N3379   1.438       .  S
C3375      C3376   1.403       .  A
C3375      H3380   1.084       .  S
C3376      C3381   1.487       .  S
C3376      C3377   1.410       .  A
C3377      C3378   1.403       .  A
C3377      N3382   1.438       .  S
C3378      H3383   1.084       .  S
N3379      H3399   1.045       .  S
N3379      H3400   1.046       .  S
C3381      C3384   1.401       .  A
C3381      C3388   1.410       .  A
N3382      H3397   1.046       .  S
N3382      H3398   1.046       .  S
C3384      C3385   1.405       .  A
C3384      H3389   1.084       .  S
C3385      C3386   1.418       .  A
C3385      N3390   1.438       .  S
C3386      C3387   1.408       .  A
C3387      C3388   1.407       .  A
C3387      H3391   1.083       .  S
C3388      N3392   1.438       .  S
N3390      H3393   1.046       .  S
N3390      H3394   1.046       .  S
N3392      H3395   1.046       .  S
N3392      H3396   1.046       .  S
C3401      C3402   1.409       .  A
C3401      C3406   1.406       .  A
C3402      C3403   1.405       .  A
C3402      N3407   1.437       .  S
C3403      C3404   1.403       .  A
C3403      H3408   1.084       .  S
C3404      C3409   1.480       .  S
C3404      C3405   1.414       .  A
C3405      C3406   1.404       .  A
C3405      N3410   1.438       .  S
C3406      H3411   1.084       .  S
N3407      H3427   1.045       .  S
N3407      H3428   1.046       .  S
C3409      C3412   1.402       .  A
C3409      C3416   1.407       .  A
N3410      H3425   1.045       .  S
N3410      H3426   1.044       .  S
C3412      C3413   1.404       .  A
C3412      H3417   1.084       .  S
C3413      C3414   1.409       .  A
C3413      N3418   1.437       .  S
C3414      C3415   1.407       .  A
C3415      C3416   1.408       .  A
C3415      H3419   1.084       .  S
C3416      N3420   1.437       .  S
N3418      H3421   1.046       .  S
N3418      H3422   1.045       .  S
N3420      H3423   1.046       .  S
N3420      H3424   1.046       .  S
C3429      C3430   1.410       .  A
C3429      C3434   1.405       .  A
C3430      C3431   1.402       .  A
C3430      N3435   1.433       .  S
C3431      C3432   1.403       .  A
C3431      H3436   1.084       .  S
C3432      C3437   1.489   1_455  S
C3432      C3433   1.412       .  A
C3433      C3434   1.412       .  A
C3433      N3438   1.437       .  S
C3434      H3439   1.084       .  S
N3435      H3455   1.046       .  S
N3435      H3456   1.046       .  S
C3437      C3440   1.403       .  A
C3437      C3444   1.412       .  A
N3438      H3453   1.046       .  S
N3438      H3454   1.046       .  S
C3440      C3441   1.406       .  A
C3440      H3445   1.084       .  S
C3441      C3442   1.411       .  A
C3441      N3446   1.437       .  S
C3442      C3443   1.404       .  A
C3443      C3444   1.410       .  A
C3443      H3447   1.084       .  S
C3444      N3448   1.437       .  S
N3446      H3449   1.046       .  S
N3446      H3450   1.045       .  S
N3448      H3451   1.046       .  S
N3448      H3452   1.045   1_655  S
C3457      C3458   1.416       .  A
C3457      C3462   1.407       .  A
C3458      C3459   1.410       .  A
C3458      N3463   1.438       .  S
C3459      C3460   1.404       .  A
C3459      H3464   1.084       .  S
C3460      C3465   1.484       .  S
C3460      C3461   1.407       .  A
C3461      C3462   1.403       .  A
C3461      N3466   1.438       .  S
C3462      H3467   1.084       .  S
N3463      H3483   1.045       .  S
N3463      H3484   1.046       .  S
C3465      C3468   1.401       .  A
C3465      C3472   1.411       .  A
N3466      H3481   1.046       .  S
N3466      H3482   1.046       .  S
C3468      C3469   1.403       .  A
C3468      H3473   1.084       .  S
C3469      C3470   1.414       .  A
C3469      N3474   1.432       .  S
C3470      C3471   1.409       .  A
C3471      C3472   1.402       .  A
C3471      H3475   1.084       .  S
C3472      N3476   1.432       .  S
N3474      H3477   1.046       .  S
N3474      H3478   1.046       .  S
N3476      H3479   1.045       .  S
N3476      H3480   1.046       .  S
C3485      C3486   1.417       .  A
C3485      C3490   1.411       .  A
C3486      C3487   1.400       .  A
C3486      N3491   1.433       .  S
C3487      C3488   1.401       .  A
C3487      H3492   1.084       .  S
C3488      C3493   1.495       .  S
C3488      C3489   1.412       .  A
C3489      C3490   1.417       .  A
C3489      N3494   1.437       .  S
C3490      H3495   1.083       .  S
N3491      H3511   1.046       .  S
N3491      H3512   1.046       .  S
C3493      C3496   1.407       .  A
C3493      C3500   1.412       .  A
N3494      H3509   1.046       .  S
N3494      H3510   1.046       .  S
C3496      C3497   1.414       .  A
C3496      H3501   1.083       .  S
C3497      C3498   1.411       .  A
C3497      N3502   1.437       .  S
C3498      C3499   1.401       .  A
C3499      C3500   1.406       .  A
C3499      H3503   1.084       .  S
C3500      N3504   1.438       .  S
N3502      H3505   1.046       .  S
N3502      H3506   1.046       .  S
N3504      H3507   1.046       .  S
N3504      H3508   1.045       .  S
C3513      C3514   1.413       .  A
C3513      C3518   1.401       .  A
C3514      C3515   1.407       .  A
C3514      N3519   1.438       .  S
C3515      C3516   1.400       .  A
C3515      H3520   1.084       .  S
C3516      C3521   1.479       .  S
C3516      C3517   1.411       .  A
C3517      C3518   1.404       .  A
C3517      N3522   1.439       .  S
C3518      H3523   1.084       .  S
N3519      H3539   1.045       .  S
N3519      H3540   1.046       .  S
C3521      C3524   1.400       .  A
C3521      C3528   1.411       .  A
N3522      H3537   1.046       .  S
N3522      H3538   1.045       .  S
C3524      C3525   1.408       .  A
C3524      H3529   1.084       .  S
C3525      C3526   1.415       .  A
C3525      N3530   1.438       .  S
C3526      C3527   1.402       .  A
C3527      C3528   1.404       .  A
C3527      H3531   1.084       .  S
C3528      N3532   1.439       .  S
N3530      H3533   1.046       .  S
N3530      H3534   1.044       .  S
N3532      H3535   1.046       .  S
N3532      H3536   1.045       .  S
C3541      C3542   1.416       .  A
C3541      C3546   1.408   1_455  A
C3542      C3543   1.405       .  A
C3542      N3547   1.438       .  S
C3543      C3544   1.400   1_455  A
C3543      H3548   1.084       .  S
C3544      C3549   1.487       .  S
C3544      C3545   1.411       .  A
C3545      C3546   1.413       .  A
C3545      N3550   1.438       .  S
C3546      H3551   1.083       .  S
N3547      H3567   1.046       .  S
N3547      H3568   1.046       .  S
C3549      C3552   1.406       .  A
C3549      C3556   1.409       .  A
N3550      H3565   1.046       .  S
N3550      H3566   1.044       .  S
C3552      C3553   1.415       .  A
C3552      H3557   1.083       .  S
C3553      C3554   1.412       .  A
C3553      N3558   1.437       .  S
C3554      C3555   1.404       .  A
C3555      C3556   1.403       .  A
C3555      H3559   1.084       .  S
C3556      N3560   1.439       .  S
N3558      H3561   1.046       .  S
N3558      H3562   1.045       .  S
N3560      H3563   1.046       .  S
N3560      H3564   1.044       .  S
C3569      C3570   1.411       .  A
C3569      C3574   1.404       .  A
C3570      C3571   1.413       .  A
C3570      N3575   1.437       .  S
C3571      C3572   1.406       .  A
C3571      H3576   1.083       .  S
C3572      C3577   1.486       .  S
C3572      C3573   1.409       .  A
C3573      C3574   1.404       .  A
C3573      N3578   1.439       .  S
C3574      H3579   1.084       .  S
N3575      H3595   1.046       .  S
N3575      H3596   1.046       .  S
C3577      C3580   1.405       .  A
C3577      C3584   1.408       .  A
N3578      H3593   1.046       .  S
N3578      H3594   1.045       .  S
C3580      C3581   1.415       .  A
C3580      H3585   1.083       .  S
C3581      C3582   1.416       .  A
C3581      N3586   1.437       .  S
C3582      C3583   1.406       .  A
C3583      C3584   1.402       .  A
C3583      H3587   1.084       .  S
C3584      N3588   1.439       .  S
N3586      H3589   1.046       .  S
N3586      H3590   1.046       .  S
N3588      H3591   1.045       .  S
N3588      H3592   1.046       .  S
C3597      C3598   1.419       .  A
C3597      C3602   1.410       .  A
C3598      C3599   1.408       .  A
C3598      N3603   1.438       .  S
C3599      C3600   1.401       .  A
C3599      H3604   1.084       .  S
C3600      C3605   1.478       .  S
C3600      C3601   1.405       .  A
C3601      C3602   1.401       .  A
C3601      N3606   1.438       .  S
C3602      H3607   1.083       .  S
N3603      H3623   1.046       .  S
N3603      H3624   1.046       .  S
C3605      C3608   1.398       .  A
C3605      C3612   1.406       .  A
N3606      H3621   1.046       .  S
N3606      H3622   1.046       .  S
C3608      C3609   1.403       .  A
C3608      H3613   1.084       .  S
C3609      C3610   1.422       .  A
C3609      N3614   1.439       .  S
C3610      C3611   1.409       .  A
C3611      C3612   1.406       .  A
C3611      H3615   1.083       .  S
C3612      N3616   1.437       .  S
N3614      H3617   1.046       .  S
N3614      H3618   1.046       .  S
N3616      H3619   1.046       .  S
N3616      H3620   1.046       .  S
C3625      C3626   1.415       .  A
C3625      C3630   1.405       .  A
C3626      C3627   1.403       .  A
C3626      N3631   1.438       .  S
C3627      C3628   1.400       .  A
C3627      H3632   1.084       .  S
C3628      C3633   1.481       .  S
C3628      C3629   1.410       .  A
C3629      C3630   1.407       .  A
C3629      N3634   1.438       .  S
C3630      H3635   1.084       .  S
N3631      H3651   1.046       .  S
N3631      H3652   1.046       .  S
C3633      C3636   1.400       .  A
C3633      C3640   1.408   1_565  A
N3634      H3649   1.046       .  S
N3634      H3650   1.046       .  S
C3636      C3637   1.406   1_565  A
C3636      H3641   1.084       .  S
C3637      C3638   1.418       .  A
C3637      N3642   1.438       .  S
C3638      C3639   1.408       .  A
C3639      C3640   1.404       .  A
C3639      H3643   1.084       .  S
C3640      N3644   1.438       .  S
N3642      H3645   1.046   1_545  S
N3642      H3646   1.045       .  S
N3644      H3647   1.046       .  S
N3644      H3648   1.046       .  S
C3653      C3654   1.408       .  A
C3653      C3658   1.407       .  A
C3654      C3655   1.405       .  A
C3654      N3659   1.437       .  S
C3655      C3656   1.404       .  A
C3655      H3660   1.084       .  S
C3656      C3661   1.483       .  S
C3656      C3657   1.415       .  A
C3657      C3658   1.406       .  A
C3657      N3662   1.438       .  S
C3658      H3663   1.085       .  S
N3659      H3679   1.045       .  S
N3659      H3680   1.046       .  S
C3661      C3664   1.403   1_455  A
C3661      C3668   1.408       .  A
N3662      H3677   1.046   1_455  S
N3662      H3678   1.044   1_455  S
C3664      C3665   1.406       .  A
C3664      H3669   1.084       .  S
C3665      C3666   1.408       .  A
C3665      N3670   1.437       .  S
C3666      C3667   1.405       .  A
C3667      C3668   1.409   1_655  A
C3667      H3671   1.084       .  S
C3668      N3672   1.437       .  S
N3670      H3673   1.046       .  S
N3670      H3674   1.045       .  S
N3672      H3675   1.046       .  S
N3672      H3676   1.046       .  S
C3681      C3682   1.417       .  A
C3681      C3686   1.407       .  A
C3682      C3683   1.414       .  A
C3682      N3687   1.437       .  S
C3683      C3684   1.403       .  A
C3683      H3688   1.083       .  S
C3684      C3689   1.482       .  S
C3684      C3685   1.407       .  A
C3685      C3686   1.401       .  A
C3685      N3690   1.439       .  S
C3686      H3691   1.083       .  S
N3687      H3707   1.046       .  S
N3687      H3708   1.046       .  S
C3689      C3692   1.400       .  A
C3689      C3696   1.411       .  A
N3690      H3705   1.045       .  S
N3690      H3706   1.045       .  S
C3692      C3693   1.399       .  A
C3692      H3697   1.084       .  S
C3693      C3694   1.418       .  A
C3693      N3698   1.440       .  S
C3694      C3695   1.405       .  A
C3695      C3696   1.412       .  A
C3695      H3699   1.084       .  S
C3696      N3700   1.437       .  S
N3698      H3701   1.046       .  S
N3698      H3702   1.044       .  S
N3700      H3703   1.046       .  S
N3700      H3704   1.045       .  S
C3709      C3710   1.415   1_655  A
C3709      C3714   1.407       .  A
C3710      C3711   1.404       .  A
C3710      N3715   1.438       .  S
C3711      C3712   1.403   1_455  A
C3711      H3716   1.084       .  S
C3712      C3717   1.492   1_655  S
C3712      C3713   1.412       .  A
C3713      C3714   1.413       .  A
C3713      N3718   1.437       .  S
C3714      H3719   1.083       .  S
N3715      H3735   1.046       .  S
N3715      H3736   1.046       .  S
C3717      C3720   1.405   1_455  A
C3717      C3724   1.413       .  A
N3718      H3733   1.046       .  S
N3718      H3734   1.046       .  S
C3720      C3721   1.409   1_655  A
C3720      H3725   1.084       .  S
C3721      C3722   1.410       .  A
C3721      N3726   1.438       .  S
C3722      C3723   1.401       .  A
C3723      C3724   1.408       .  A
C3723      H3727   1.084       .  S
C3724      N3728   1.437       .  S
N3726      H3729   1.046   1_455  S
N3726      H3730   1.046   1_455  S
N3728      H3731   1.046       .  S
N3728      H3732   1.045       .  S
C3737      C3738   1.421       .  A
C3737      C3742   1.409       .  A
C3738      C3739   1.406   1_545  A
C3738      N3743   1.438       .  S
C3739      C3740   1.398       .  A
C3739      H3744   1.084       .  S
C3740      C3745   1.482       .  S
C3740      C3741   1.409   1_565  A
C3741      C3742   1.408       .  A
C3741      N3746   1.438   1_545  S
C3742      H3747   1.083       .  S
N3743      H3763   1.046       .  S
N3743      H3764   1.046       .  S
C3745      C3748   1.399       .  A
C3745      C3752   1.411       .  A
N3746      H3761   1.046   1_565  S
N3746      H3762   1.044       .  S
C3748      C3749   1.407       .  A
C3748      H3753   1.084       .  S
C3749      C3750   1.420       .  A
C3749      N3754   1.438       .  S
C3750      C3751   1.408       .  A
C3751      C3752   1.401       .  A
C3751      H3755   1.084       .  S
C3752      N3756   1.433       .  S
N3754      H3757   1.046       .  S
N3754      H3758   1.045       .  S
N3756      H3759   1.045       .  S
N3756      H3760   1.044       .  S
C3765      C3766   1.414       .  A
C3765      C3770   1.406       .  A
C3766      C3767   1.404       .  A
C3766      N3771   1.438       .  S
C3767      C3768   1.399       .  A
C3767      H3772   1.084       .  S
C3768      C3773   1.473       .  S
C3768      C3769   1.406       .  A
C3769      C3770   1.404       .  A
C3769      N3774   1.438       .  S
C3770      H3775   1.084       .  S
N3771      H3791   1.045       .  S
N3771      H3792   1.046       .  S
C3773      C3776   1.396       .  A
C3773      C3780   1.408       .  A
N3774      H3789   1.046       .  S
N3774      H3790   1.045       .  S
C3776      C3777   1.399       .  A
C3776      H3781   1.084       .  S
C3777      C3778   1.416       .  A
C3777      N3782   1.433       .  S
C3778      C3779   1.405       .  A
C3779      C3780   1.406       .  A
C3779      H3783   1.083       .  S
C3780      N3784   1.437       .  S
N3782      H3785   1.046       .  S
N3782      H3786   1.046       .  S
N3784      H3787   1.046       .  S
N3784      H3788   1.045       .  S
C3793      C3794   1.413       .  A
C3793      C3798   1.402       .  A
C3794      C3795   1.407       .  A
C3794      N3799   1.438       .  S
C3795      C3796   1.401       .  A
C3795      H3800   1.084       .  S
C3796      C3801   1.481       .  S
C3796      C3797   1.412       .  A
C3797      C3798   1.404       .  A
C3797      N3802   1.439       .  S
C3798      H3803   1.084       .  S
N3799      H3819   1.045       .  S
N3799      H3820   1.046       .  S
C3801      C3804   1.400       .  A
C3801      C3808   1.412       .  A
N3802      H3817   1.046       .  S
N3802      H3818   1.046       .  S
C3804      C3805   1.405       .  A
C3804      H3809   1.084       .  S
C3805      C3806   1.414       .  A
C3805      N3810   1.437       .  S
C3806      C3807   1.401       .  A
C3807      C3808   1.406       .  A
C3807      H3811   1.084       .  S
C3808      N3812   1.438       .  S
N3810      H3813   1.046       .  S
N3810      H3814   1.044       .  S
N3812      H3815   1.046       .  S
N3812      H3816   1.046       .  S
C3821      C3822   1.410   1_565  A
C3821      C3826   1.406       .  A
C3822      C3823   1.402       .  A
C3822      N3827   1.438   1_545  S
C3823      C3824   1.402       .  A
C3823      H3828   1.084       .  S
C3824      C3829   1.485       .  S
C3824      C3825   1.411       .  A
C3825      C3826   1.413   1_545  A
C3825      N3830   1.437       .  S
C3826      H3831   1.084       .  S
N3827      H3847   1.046       .  S
N3827      H3848   1.046   1_565  S
C3829      C3832   1.401       .  A
C3829      C3836   1.412       .  A
N3830      H3845   1.046       .  S
N3830      H3846   1.046       .  S
C3832      C3833   1.402       .  A
C3832      H3837   1.084       .  S
C3833      C3834   1.411       .  A
C3833      N3838   1.433       .  S
C3834      C3835   1.404       .  A
C3835      C3836   1.410       .  A
C3835      H3839   1.084       .  S
C3836      N3840   1.437       .  S
N3838      H3841   1.045       .  S
N3838      H3842   1.046       .  S
N3840      H3843   1.046       .  S
N3840      H3844   1.046       .  S
C3849      C3850   1.418       .  A
C3849      C3854   1.405       .  A
C3850      C3851   1.400       .  A
C3850      N3855   1.439       .  S
C3851      C3852   1.395       .  A
C3851      H3856   1.084       .  S
C3852      C3857   1.473       .  S
C3852      C3853   1.410       .  A
C3853      C3854   1.408       .  A
C3853      N3858   1.438       .  S
C3854      H3859   1.084       .  S
N3855      H3875   1.046       .  S
N3855      H3876   1.046       .  S
C3857      C3860   1.400       .  A
C3857      C3864   1.404       .  A
N3858      H3873   1.046       .  S
N3858      H3874   1.045       .  S
C3860      C3861   1.406       .  A
C3860      H3865   1.084       .  S
C3861      C3862   1.416       .  A
C3861      N3866   1.437       .  S
C3862      C3863   1.409       .  A
C3863      C3864   1.402       .  A
C3863      H3867   1.084       .  S
C3864      N3868   1.438       .  S
N3866      H3869   1.046       .  S
N3866      H3870   1.046       .  S
N3868      H3871   1.046       .  S
N3868      H3872   1.045       .  S
C3877      C3878   1.411       .  A
C3877      C3882   1.405       .  A
C3878      C3879   1.406       .  A
C3878      N3883   1.432       .  S
C3879      C3880   1.403       .  A
C3879      H3884   1.084       .  S
C3880      C3885   1.481       .  S
C3880      C3881   1.408       .  A
C3881      C3882   1.404       .  A
C3881      N3886   1.438       .  S
C3882      H3887   1.084       .  S
N3883      H3903   1.046       .  S
N3883      H3904   1.046       .  S
C3885      C3888   1.403       .  A
C3885      C3892   1.405       .  A
N3886      H3901   1.046       .  S
N3886      H3902   1.045       .  S
C3888      C3889   1.409       .  A
C3888      H3893   1.084       .  S
C3889      C3890   1.415       .  A
C3889      N3894   1.438       .  S
C3890      C3891   1.410       .  A
C3891      C3892   1.403       .  A
C3891      H3895   1.083       .  S
C3892      N3896   1.438       .  S
N3894      H3897   1.046       .  S
N3894      H3898   1.045       .  S
N3896      H3899   1.046       .  S
N3896      H3900   1.046       .  S
C3905      C3906   1.416       .  A
C3905      C3910   1.409       .  A
C3906      C3907   1.404   1_655  A
C3906      N3911   1.438       .  S
C3907      C3908   1.402       .  A
C3907      H3912   1.084       .  S
C3908      C3913   1.485       .  S
C3908      C3909   1.408       .  A
C3909      C3910   1.410   1_455  A
C3909      N3914   1.437       .  S
C3910      H3915   1.083       .  S
N3911      H3931   1.046       .  S
N3911      H3932   1.046   1_655  S
C3913      C3916   1.402       .  A
C3913      C3920   1.412       .  A
N3914      H3929   1.046       .  S
N3914      H3930   1.046       .  S
C3916      C3917   1.403       .  A
C3916      H3921   1.084       .  S
C3917      C3918   1.407       .  A
C3917      N3922   1.433       .  S
C3918      C3919   1.402       .  A
C3919      C3920   1.409       .  A
C3919      H3923   1.084       .  S
C3920      N3924   1.437       .  S
N3922      H3925   1.045       .  S
N3922      H3926   1.046       .  S
N3924      H3927   1.046       .  S
N3924      H3928   1.046       .  S
C3933      C3934   1.421       .  A
C3933      C3938   1.409       .  A
C3934      C3935   1.404       .  A
C3934      N3939   1.438       .  S
C3935      C3936   1.397       .  A
C3935      H3940   1.084       .  S
C3936      C3941   1.477       .  S
C3936      C3937   1.407       .  A
C3937      C3938   1.406       .  A
C3937      N3942   1.438       .  S
C3938      H3943   1.083       .  S
N3939      H3959   1.046       .  S
N3939      H3960   1.046       .  S
C3941      C3944   1.399       .  A
C3941      C3948   1.406       .  A
N3942      H3957   1.046       .  S
N3942      H3958   1.045       .  S
C3944      C3945   1.408       .  A
C3944      H3949   1.084       .  S
C3945      C3946   1.420       .  A
C3945      N3950   1.438       .  S
C3946      C3947   1.408       .  A
C3947      C3948   1.402       .  A
C3947      H3951   1.083       .  S
C3948      N3952   1.438       .  S
N3950      H3953   1.046       .  S
N3950      H3954   1.046       .  S
N3952      H3955   1.046       .  S
N3952      H3956   1.045       .  S
