geometry optimzed in LAMMPS
_audit_creation_date              2020-12-01 
_audit_creation_method            'lammps2cif' 
_symmetry_space_group_name_H-M    'P1' 
_symmetry_Int_Tables_number       1 
_symmetry_cell_setting            triclinic 
loop_ 
_symmetry_equiv_pos_as_xyz 
  x,y,z 
_cell_length_a                    33.53312765 
_cell_length_b                    33.58796322879115 
_cell_length_c                    64.82509094353732 
_cell_angle_alpha                 89.71026975169517 
_cell_angle_beta                  90.2531871288957 
_cell_angle_gamma                 120.26199545175446 
loop_ 
_atom_site_label 
_atom_site_type_symbol 
_atom_site_fract_x 
_atom_site_fract_y 
_atom_site_fract_z 
_atom_site_charge 
O1          O  0.68593030  0.83522836  0.32675844    -0.80300
O2          O  0.70922139  0.80335971  0.42116177    -0.65000
O3          O  0.67500880  0.78782427  0.36440669    -1.11600
C4          C  0.55937624  0.81976567  0.38683676     1.06500
O5          O  0.63742746  0.76246536  0.43238578    -0.78200
O6          O  0.56994363  0.72596082  0.40371082    -0.65800
Ni7        Ni  0.72267263  0.81946739  0.34421549     1.34900
C8          C  0.56122789  0.71490709  0.38488297     0.85300
O9          O  0.73706098  0.77585465  0.38922506    -0.78800
O10         O  0.76549058  0.80616045  0.35837082    -0.89100
C11         C  0.68063122  0.77969225  0.43502415     0.84800
O12         O  0.74905525  0.87858164  0.35680546    -0.67300
O13         O  0.56307600  0.80350738  0.40410617    -0.86600
C14         C  0.75897146  0.88921354  0.37562462     0.85700
C15         C  0.76687342  0.78679891  0.37507111     1.07200
H16         H  0.66456227  0.84767403  0.39877446     0.39000
O17         O  0.64899183  0.81503062  0.39582738    -1.09200
O18         O  0.58140815  0.74312604  0.37012589    -0.65900
Ni19       Ni  0.63003500  0.80675175  0.36753160     1.26300
O20         O  0.74226708  0.85996174  0.39026406    -0.66100
O21         O  0.58566592  0.82622338  0.37150655    -0.78400
C22         C  0.64279323  0.81846554  0.32428948     0.85100
O23         O  0.61429641  0.79946788  0.33892327    -0.65600
Ni24       Ni  0.60294866  0.78449612  0.41675792     1.27400
Ni25       Ni  0.69359072  0.79609373  0.39274404     1.26100
H26         H  0.65965687  0.75530281  0.36132116     0.39600
O27         O  0.82265142  0.69328966  0.67392529    -0.80300
O28         O  0.80837448  0.71980996  0.57818368    -0.65000
O29         O  0.78287137  0.68642558  0.63489695    -1.11600
C30         C  0.81794982  0.57020824  0.61503634     1.06500
O31         O  0.76375987  0.64731532  0.56850268    -0.78200
O32         O  0.72981743  0.57483552  0.59475814    -0.65800
Ni33       Ni  0.81189440  0.73243875  0.65572022     1.34900
C34         C  0.71181948  0.56920117  0.61245508     0.85300
O35         O  0.78069340  0.75226712  0.60850129    -0.78800
O36         O  0.80360718  0.77745409  0.64057717    -0.89100
C37         C  0.78147399  0.69032003  0.56523825     0.84800
O38         O  0.87295243  0.75756096  0.64534536    -0.67300
O39         O  0.81290099  0.57976078  0.59647465    -0.86600
C40         C  0.88791218  0.76796655  0.62703540     0.85700
C41         C  0.79042815  0.78178294  0.62265439     1.07200
H42         H  0.84672577  0.67350337  0.60455623     0.39000
O43         O  0.81355389  0.65887641  0.60562174    -1.09200
O44         O  0.73401336  0.59364041  0.62797641    -0.65900
Ni45       Ni  0.79801703  0.63831835  0.63341595     1.26300
O46         O  0.86170362  0.75167413  0.61127042    -0.66100
O47         O  0.81371235  0.59053863  0.63080155    -0.78400
C48         C  0.80342519  0.64992099  0.67668418     0.85100
O49         O  0.78444557  0.62167018  0.66194241    -0.65600
Ni50       Ni  0.78940243  0.61548932  0.58361714     1.27400
Ni51       Ni  0.79726902  0.70559815  0.60676584     1.26100
H52         H  0.74992441  0.67278487  0.63663978     0.39600
O53         O  0.13757066  0.82843459  0.33259070    -0.80300
O54         O  0.18012013  0.89627841  0.42419409    -0.65000
O55         O  0.19087969  0.87567708  0.36728456    -1.11600
C56         C  0.16665341  0.73049744  0.39179481     1.06500
O57         O  0.22539426  0.86935095  0.43370640    -0.78200
O58         O  0.25693895  0.82994123  0.40711181    -0.65800
Ni59       Ni  0.15574569  0.88554868  0.34680448     1.34900
C60         C  0.27061375  0.83877216  0.38852939     0.85300
O61         O  0.19744885  0.94902547  0.39063003    -0.78800
O62         O  0.17112290  0.94428542  0.35850233    -0.89100
C63         C  0.20841629  0.89512154  0.43692345     0.84800
O64         O  0.09810887  0.85596409  0.36091191    -0.67300
O65         O  0.17611975  0.74851195  0.40973410    -0.86600
C66         C  0.08824468  0.85351448  0.37990611     0.85700
C67         C  0.18742475  0.96641620  0.37532437     1.07200
H68         H  0.13672669  0.80512834  0.40176327     0.39000
O69         O  0.16940020  0.82414955  0.39911638    -1.09200
O70         O  0.24442597  0.83676270  0.37378871    -0.65900
Ni71       Ni  0.17885855  0.81405090  0.37110564     1.26300
O72         O  0.11812127  0.86567485  0.39428117    -0.66100
O73         O  0.16589095  0.75190796  0.37561235    -0.78400
C74         C  0.16152169  0.80974440  0.32872008     0.85100
O75         O  0.18661768  0.80655659  0.34255966    -0.65600
Ni76       Ni  0.19936772  0.80978022  0.42052382     1.27400
Ni77       Ni  0.18361618  0.88667212  0.39545565     1.26100
H78         H  0.22301059  0.89542398  0.36374413     0.39600
O79         O  0.30511141  0.13907851  0.66767848    -0.80300
O80         O  0.27830361  0.10473062  0.57292434    -0.65000
O81         O  0.31118417  0.10502169  0.62909765    -1.11600
C82         C  0.42993511  0.25846625  0.61291778     1.06500
O83         O  0.35076722  0.13518872  0.56251031    -0.78200
O84         O  0.42308202  0.16756589  0.58897818    -0.65800
Ni85       Ni  0.26646360  0.08680017  0.65053810     1.34900
C86         C  0.42812394  0.15229105  0.60613510     0.85300
O87         O  0.24295541  0.04098192  0.60232666    -0.78800
O88         O  0.22309088  0.03222514  0.63583191    -0.89100
C89         C  0.30757485  0.10933134  0.55945859     0.84800
O90         O  0.23646214  0.11861594  0.64075602    -0.67300
O91         O  0.42145746  0.24712498  0.59392736    -0.86600
C92         C  0.22981955  0.12892643  0.62272389     0.85700
C93         C  0.21660817  0.01796851  0.61726077     1.07200
H94         H  0.32687522  0.18636652  0.60113999     0.39000
O95         O  0.34051584  0.16718172  0.60125751    -1.09200
O96         O  0.40395861  0.14831192  0.62197124    -0.65900
Ni97       Ni  0.36042975  0.16778579  0.62881574     1.26300
O98         O  0.24836899  0.12390012  0.60665448    -0.66100
O99         O  0.40892584  0.23116783  0.62788888    -0.78400
C100        C  0.34812465  0.15780650  0.67136360     0.85100
O101        O  0.37648641  0.16587901  0.65690494    -0.65600
Ni102      Ni  0.38417018  0.18996977  0.57933320     1.27400
Ni103      Ni  0.29219809  0.10408414  0.60128128     1.26100
H104        H  0.32401687  0.08498902  0.63001944     0.39600
O105        O  0.14400470  0.30774663  0.32529160    -0.80300
O106        O  0.08607616  0.27125038  0.41958056    -0.65000
O107        O  0.10579926  0.31048205  0.36337982    -1.11600
C108        C  0.25169917  0.42947478  0.38805688     1.06500
O109        O  0.11604951  0.34170501  0.43232433    -0.78200
O110        O  0.14846100  0.41367731  0.40569587    -0.65800
Ni111      Ni  0.09520166  0.26503571  0.34303139     1.34900
C112        C  0.14180878  0.42200519  0.38727683     0.85300
O113        O  0.03267632  0.24379175  0.38666158    -0.78800
O114        O  0.04292327  0.21601889  0.35735133    -0.89100
C115        C  0.08991632  0.29826946  0.43394661     0.84800
O116        O  0.13644580  0.24855778  0.35540878    -0.67300
O117        O  0.23299707  0.42037570  0.40582424    -0.86600
C118        C  0.13438685  0.23441954  0.37374660     0.85700
C119        C  0.01849087  0.21284919  0.37290842     1.07200
H120        H  0.17706915  0.32195975  0.39727516     0.39000
O121        O  0.15860014  0.33631366  0.39518227    -1.09200
O122        O  0.14792610  0.40274104  0.37165439    -0.65900
Ni123      Ni  0.16847749  0.35887016  0.36733846     1.26300
O124        O  0.11453493  0.24366926  0.38815653    -0.66100
O125        O  0.23110190  0.40658863  0.37195946    -0.78400
C126        C  0.16859393  0.35134148  0.32366974     0.85100
O127        O  0.17661781  0.37788649  0.33895378    -0.65600
Ni128      Ni  0.17338740  0.37873620  0.41750687     1.27400
Ni129      Ni  0.09554854  0.28944042  0.39135722     1.26100
H130        H  0.08641768  0.32335255  0.36019920     0.39600
O131        O  0.84343529  0.16333354  0.66993583    -0.80300
O132        O  0.90118693  0.19508331  0.57682433    -0.65000
O133        O  0.88826762  0.21276334  0.63398579    -1.11600
C134        C  0.74462287  0.19452160  0.61109438     1.06500
O135        O  0.88154816  0.24631872  0.56794382    -0.78200
O136        O  0.84747220  0.28326066  0.59511953    -0.65800
Ni137      Ni  0.89832208  0.17784031  0.65462412     1.34900
C138        C  0.85587567  0.29603910  0.61380491     0.85300
O139        O  0.95656563  0.21205432  0.60921132    -0.78800
O140        O  0.95447584  0.18847354  0.64174350    -0.89100
C141        C  0.90153382  0.22363205  0.56381000     0.84800
O142        O  0.86541517  0.11934325  0.64168486    -0.67300
O143        O  0.76295167  0.20532914  0.59320893    -0.86600
C144        C  0.86022463  0.10765438  0.62287341     0.85700
C145        C  0.97391378  0.20103287  0.62414303     1.07200
H146        H  0.81361450  0.16019426  0.60045450     0.39000
O147        O  0.83441614  0.19221737  0.60299475    -1.09200
O148        O  0.85137209  0.26876279  0.62847768    -0.65900
Ni149      Ni  0.82709813  0.20321962  0.63118104     1.26300
O150        O  0.87067269  0.13611290  0.60797138    -0.66100
O151        O  0.76538549  0.19217998  0.62723457    -0.78400
C152        C  0.82719217  0.18932562  0.67393798     0.85100
O153        O  0.82242847  0.21305545  0.65990887    -0.65600
Ni154      Ni  0.82298348  0.22484388  0.58178866     1.27400
Ni155      Ni  0.89544684  0.20218328  0.60566595     1.26100
H156        H  0.90945878  0.24488072  0.63685996     0.39600
O157        O  0.18084967  0.30348437  0.17269361    -0.80300
O158        O  0.19550167  0.27165186  0.07638815    -0.65000
O159        O  0.21720629  0.30982564  0.13276234    -1.11600
C160        C  0.17632400  0.41958794  0.10922780     1.06500
O161        O  0.23729446  0.34333717  0.06487216    -0.78200
O162        O  0.27298366  0.41492222  0.09202993    -0.65800
Ni163      Ni  0.18823704  0.26339850  0.15378915     1.34900
C164        C  0.28562430  0.42470221  0.11070068     0.85300
O165        O  0.22593578  0.24491387  0.10825728    -0.78800
O166        O  0.19441833  0.21720336  0.13885254    -0.89100
C167        C  0.22024108  0.30003857  0.06256801     0.84800
O168        O  0.12743131  0.24040015  0.14302119    -0.67300
O169        O  0.19157897  0.41564599  0.09174408    -0.86600
C170        C  0.11403328  0.22684220  0.12467676     0.85700
C171        C  0.21263800  0.21417854  0.12218184     1.07200
H172        H  0.15295376  0.31663643  0.09902869     0.39000
O173        O  0.18585957  0.33269250  0.10147935    -1.09200
O174        O  0.25891780  0.40345979  0.12578238    -0.65900
Ni175      Ni  0.19600044  0.35339631  0.12936953     1.26300
O176        O  0.14146942  0.24014098  0.10924988    -0.66100
O177        O  0.17373355  0.39549153  0.12496927    -0.78400
C178        C  0.19456328  0.34631631  0.17352360     0.85100
O179        O  0.20529123  0.37178467  0.15762967    -0.65600
Ni180      Ni  0.21351044  0.37734481  0.07975134     1.27400
Ni181      Ni  0.20540523  0.28858320  0.10473075     1.26100
H182        H  0.25015855  0.32606476  0.13514375     0.39600
O183        O  0.31669145  0.14278104  0.82837111    -0.80300
O184        O  0.28380426  0.17585730  0.91890127    -0.65000
O185        O  0.31943949  0.19423232  0.86257234    -1.11600
C186        C  0.44658897  0.18120143  0.88684348     1.06500
O187        O  0.35441338  0.22488992  0.92992011    -0.78200
O188        O  0.42535014  0.26563042  0.90289033    -0.65800
Ni189      Ni  0.27552694  0.15891731  0.84168729     1.34900
C190        C  0.43130483  0.27839551  0.88414693     0.85300
O191        O  0.25000777  0.19499659  0.88570332    -0.78800
O192        O  0.23083732  0.17286327  0.85295006    -0.89100
C193        C  0.31080915  0.20300408  0.93245439     0.84800
O194        O  0.24639461  0.10036413  0.85523744    -0.67300
O195        O  0.43743079  0.19126000  0.90449899    -0.86600
C196        C  0.23998032  0.08959040  0.87419355     0.85700
C197        C  0.22386294  0.18693614  0.87004729     1.07200
H198        H  0.33887406  0.14135591  0.89703580     0.39000
O199        O  0.35067854  0.17374881  0.89434166    -1.09200
O200        O  0.41151257  0.25087848  0.86919961    -0.65900
Ni201      Ni  0.37098246  0.18533259  0.86628743     1.26300
O202        O  0.25838357  0.11865901  0.88863891    -0.66100
O203        O  0.42231644  0.17599346  0.87077916    -0.78400
C204        C  0.35855690  0.17098762  0.82384420     0.85100
O205        O  0.38692675  0.19545473  0.83773966    -0.65600
Ni206      Ni  0.39379820  0.20665898  0.91589238     1.27400
Ni207      Ni  0.30000863  0.18407768  0.89054299     1.26100
H208        H  0.33056972  0.22630306  0.85940407     0.39600
O209        O  0.14647786  0.82101193  0.17633078    -0.80300
O210        O  0.09975705  0.80282103  0.08030280    -0.65000
O211        O  0.11067804  0.78238651  0.13751996    -1.11600
C212        C  0.25760291  0.80634451  0.11596337     1.06500
O213        O  0.12401561  0.75535823  0.07120782    -0.78200
O214        O  0.16110901  0.72003513  0.09763198    -0.65800
Ni215      Ni  0.10197781  0.81979678  0.15705670     1.34900
C216        C  0.14952602  0.70361090  0.11573308     0.85300
O217        O  0.04263832  0.78212148  0.11217119    -0.78800
O218        O  0.05374658  0.82125157  0.14113472    -0.89100
C219        C  0.09982177  0.77409034  0.06770644     0.84800
O220        O  0.14804691  0.87652299  0.14515445    -0.67300
O221        O  0.24210148  0.80078935  0.09756932    -0.86600
C222        C  0.14730951  0.88902911  0.12672390     0.85700
C223        C  0.02980446  0.80178933  0.12505488     1.07200
H224        H  0.18697068  0.83967196  0.10553238     0.39000
O225        O  0.16664144  0.80678274  0.10719998    -1.09200
O226        O  0.14845614  0.72720368  0.13083845    -0.65900
Ni227      Ni  0.17224660  0.79248939  0.13513592     1.26300
O228        O  0.12761672  0.86025160  0.11209609    -0.66100
O229        O  0.23427533  0.80414221  0.13189009    -0.78400
C230        C  0.16729762  0.79841385  0.17855001     0.85100
O231        O  0.17571192  0.77959428  0.16358978    -0.65600
Ni232      Ni  0.18231802  0.77921690  0.08549568     1.27400
Ni233      Ni  0.10470377  0.79446355  0.10915115     1.26100
H234        H  0.08916593  0.75035602  0.14054643     0.39600
O235        O  0.84876964  0.67931146  0.83265132    -0.80300
O236        O  0.90701809  0.70886823  0.92571848    -0.65000
O237        O  0.89210593  0.67454313  0.86904991    -1.11600
C238        C  0.74204898  0.55649390  0.88988354     1.06500
O239        O  0.87176827  0.63697772  0.93756622    -0.78200
O240        O  0.83701085  0.56518234  0.91110358    -0.65800
Ni241      Ni  0.90351997  0.71944128  0.84828670     1.34900
C242        C  0.84948887  0.55899164  0.89349201     0.85300
O243        O  0.96384954  0.73992365  0.89340915    -0.78800
O244        O  0.96019026  0.76371405  0.86148205    -0.89100
C245        C  0.89972694  0.67989179  0.93989739     0.84800
O246        O  0.87074454  0.74587485  0.86070073    -0.67300
O247        O  0.75646315  0.56632433  0.90843072    -0.86600
C248        C  0.87016603  0.75667175  0.87934957     0.85700
C249        C  0.98193821  0.76773893  0.87824222     1.07200
H250        H  0.81790261  0.66217960  0.90013177     0.39000
O251        O  0.83596718  0.64715637  0.89924559    -1.09200
O252        O  0.85072806  0.58202413  0.87752929    -0.65900
Ni253      Ni  0.82993594  0.62536355  0.87144303     1.26300
O254        O  0.88296899  0.74074327  0.89418555    -0.66100
O255        O  0.76686095  0.57682524  0.87419121    -0.78400
C256        C  0.83221839  0.63680280  0.82871177     0.85100
O257        O  0.82720528  0.60850985  0.84295059    -0.65600
Ni258      Ni  0.81550699  0.60393460  0.92156424     1.27400
Ni259      Ni  0.90006412  0.69374067  0.89711506     1.26100
H260        H  0.91201281  0.66210182  0.86633440     0.39600
O261        O  0.68945794  0.84431511  0.17319613    -0.80300
O262        O  0.72209039  0.90790962  0.07907430    -0.65000
O263        O  0.68705525  0.88594122  0.13576306    -1.11600
C264        C  0.56611981  0.74061075  0.11075027     1.06500
O265        O  0.64993376  0.87905775  0.06805017    -0.78200
O266        O  0.57759982  0.84075376  0.09448405    -0.65800
Ni267      Ni  0.73250228  0.89452103  0.15593567     1.34900
C268        C  0.57197413  0.84864655  0.11303404     0.85300
O269        O  0.75413770  0.95949514  0.11278042    -0.78800
O270        O  0.78148548  0.94784382  0.14218381    -0.89100
C271        C  0.69324617  0.90499931  0.06557898     0.84800
O272        O  0.74892242  0.85452515  0.14251845    -0.67300
O273        O  0.57546004  0.75895341  0.09283517    -0.86600
C274        C  0.76203198  0.85710581  0.12397912     0.85700
C275        C  0.78508551  0.97281626  0.12668731     1.07200
H276        H  0.67272980  0.81581217  0.10136419     0.39000
O277        O  0.65875325  0.83445731  0.10372977    -1.09200
O278        O  0.59505999  0.84594248  0.12801909    -0.65900
Ni279      Ni  0.63754991  0.82399686  0.13162282     1.26300
O280        O  0.75175473  0.87712106  0.10986507    -0.66100
O281        O  0.58835578  0.76172531  0.12694678    -0.78400
C282        C  0.64582697  0.82357617  0.17507758     0.85100
O283        O  0.61928070  0.81649186  0.15984755    -0.65600
Ni284      Ni  0.61504109  0.81999426  0.08181557     1.27400
Ni285      Ni  0.70662705  0.89724627  0.10767533     1.26100
H286        H  0.67482951  0.90561164  0.13935473     0.39600
O287        O  0.84726143  0.14747510  0.82616704    -0.80300
O288        O  0.81720878  0.08774157  0.92071677    -0.65000
O289        O  0.80260972  0.10806245  0.86381859    -1.11600
C290        C  0.84098503  0.25734757  0.88853332     1.06500
O291        O  0.77479135  0.11763523  0.93049573    -0.78200
O292        O  0.74645216  0.16267137  0.90485675    -0.65800
Ni293      Ni  0.83784440  0.09721067  0.84386353     1.34900
C294        C  0.73135199  0.15399396  0.88647439     0.85300
O295        O  0.79311395  0.03355387  0.88757057    -0.78800
O296        O  0.83095803  0.04360634  0.85812606    -0.89100
C297        C  0.79186862  0.09186953  0.93397020     0.84800
O298        O  0.89569556  0.13600166  0.85704659    -0.67300
O299        O  0.83180460  0.23959679  0.90658544    -0.86600
C300        C  0.90600117  0.13254634  0.87557804     0.85700
C301        C  0.80953999  0.01910972  0.87371841     1.07200
H302        H  0.86275604  0.17785139  0.89755416     0.39000
O303        O  0.82975374  0.16044453  0.89541886    -1.09200
O304        O  0.75496362  0.15309369  0.87135234    -0.65900
Ni305      Ni  0.81898693  0.17116869  0.86761975     1.26300
O306        O  0.87577538  0.11412933  0.88974133    -0.66100
O307        O  0.83655547  0.23439290  0.87220323    -0.78400
C308        C  0.82858344  0.17214625  0.82428367     0.85100
O309        O  0.80924345  0.17975992  0.83929427    -0.65600
Ni310      Ni  0.80406108  0.17771030  0.91740536     1.27400
Ni311      Ni  0.81128545  0.09696314  0.89204367     1.26100
H312        H  0.77026263  0.08951269  0.86032664     0.39600
C313        C  0.79397163  0.02830588  0.98274055    -0.11300
C314        C  0.74843492  0.00983476  0.98957834     0.11300
C315        C  0.71785729  0.01986907  0.97871487    -0.03100
C316        C  0.73342721  0.04625476  0.96051795    -0.05900
C317        C  0.77870576  0.06380520  0.95321288    -0.16600
C318        C  0.80996685  0.05557331  0.96477808     0.02300
C319        C  0.73459253  0.98205334  0.00883896     0.12200
C320        C  0.66937733  0.00362067  0.98656123     0.62800
H321        H  0.71015749  0.05350602  0.95181681     0.12200
C322        C  0.86012660  0.07592579  0.95858789     0.55000
H323        H  0.81694936  0.02101580  0.99167136     0.08000
C324        C  0.71945808  0.93434589  0.00898401    -0.05800
C325        C  0.70656962  0.91039875  0.02792893    -0.06500
C326        C  0.70968649  0.93304091  0.04652098    -0.16100
C327        C  0.72541976  0.98090403  0.04631826    -0.01700
C328        C  0.73790228  0.00468337  0.02739379    -0.09200
C329        C  0.71750551  0.90916449  0.98926377     0.65000
H330        H  0.69418402  0.87374851  0.02842106     0.10500
C331        C  0.72890303  0.00677573  0.06594085     0.63400
H332        H  0.75044068  0.04136489  0.02686965     0.07900
F333        F  0.86265388  0.05352688  0.94128881    -0.19600
F334        F  0.88599625  0.07107277  0.97406131    -0.15800
F335        F  0.87965132  0.12251292  0.95442763    -0.19300
F336        F  0.67174502  0.02345981  0.00549237    -0.22700
F337        F  0.64525837  0.95622842  0.98872872    -0.24200
F338        F  0.64477654  0.01567253  0.97323840    -0.18200
F339        F  0.76262573  0.00754724  0.07843833    -0.20600
F340        F  0.68713313  0.98534003  0.07621747    -0.21800
F341        F  0.74052784  0.05192818  0.06201947    -0.19000
F342        F  0.70045544  0.86263884  0.99273144    -0.19100
F343        F  0.76135636  0.92770754  0.98110159    -0.22900
F344        F  0.68925246  0.91346661  0.97493829    -0.24500
C345        C  0.87307436  0.86905835  0.89059511    -0.11300
C346        C  0.82788933  0.85759060  0.88537065     0.11300
C347        C  0.79523473  0.81142573  0.88004161    -0.03100
C348        C  0.80978254  0.77870626  0.87913118    -0.05900
C349        C  0.85543229  0.79065197  0.88366827    -0.16600
C350        C  0.88742850  0.83623586  0.88999894     0.02300
C351        C  0.81771387  0.89583571  0.88313761     0.12200
C352        C  0.74543762  0.79696900  0.87508345     0.62800
H353        H  0.78591752  0.74374043  0.87426494     0.12200
C354        C  0.93729717  0.85086140  0.89483041     0.55000
H355        H  0.89771895  0.90465563  0.89420130     0.08000
C356        C  0.81298796  0.91942152  0.90015675    -0.05800
C357        C  0.80743705  0.95781373  0.89641822    -0.06500
C358        C  0.80729238  0.97372375  0.87628453    -0.16100
C359        C  0.80982536  0.94838023  0.85924559    -0.01700
C360        C  0.81579890  0.91049114  0.86310611    -0.09200
C361        C  0.81628346  0.90577980  0.92217012     0.65000
H362        H  0.80595849  0.97733990  0.90933885     0.10500
C363        C  0.80702014  0.96093883  0.83691442     0.63400
H364        H  0.82051490  0.89258491  0.85033741     0.07900
F365        F  0.96261341  0.89662231  0.90071732    -0.19600
F366        F  0.95783181  0.84525116  0.87751443    -0.15800
F367        F  0.93907851  0.82433640  0.91079202    -0.19300
F368        F  0.74317906  0.81720218  0.85684231    -0.22700
F369        F  0.72713611  0.81045292  0.89081559    -0.24200
F370        F  0.71825150  0.74965785  0.87292824    -0.18200
F371        F  0.84844957  0.99893143  0.83110827    -0.20600
F372        F  0.77157857  0.97037427  0.83452187    -0.21800
F373        F  0.79826449  0.92523824  0.82363571    -0.19000
F374        F  0.80187331  0.92687526  0.93619314    -0.19100
F375        F  0.86158087  0.91879392  0.92663513    -0.22900
F376        F  0.78887139  0.85862460  0.92471664    -0.24500
C377        C  0.89191585  0.47757754  0.87555312    -0.11300
C378        C  0.86415627  0.43871824  0.88776477     0.11300
C379        C  0.83553462  0.44117803  0.90305199    -0.03100
C380        C  0.83379353  0.48188707  0.90480539    -0.05900
C381        C  0.85892783  0.52004349  0.89166898    -0.16600
C382        C  0.89015630  0.51859935  0.87735011     0.02300
C383        C  0.86546130  0.39555962  0.88464147     0.12200
C384        C  0.80660806  0.40076187  0.91741340     0.62800
H385        H  0.81147951  0.48359659  0.91630076     0.12200
C386        C  0.92274216  0.56039017  0.86463973     0.55000
H387        H  0.91465658  0.47527562  0.86442540     0.08000
C388        C  0.83660095  0.36199651  0.87006082    -0.05800
C389        C  0.83157689  0.31782346  0.87114599    -0.06500
C390        C  0.85448022  0.30657251  0.88627113    -0.16100
C391        C  0.88707417  0.34173573  0.89939512    -0.01700
C392        C  0.89212257  0.38591563  0.89824342    -0.09200
C393        C  0.81041042  0.37255032  0.85382986     0.65000
H394        H  0.80776022  0.29096380  0.86083676     0.10500
C395        C  0.91628260  0.33289522  0.91461524     0.63400
H396        H  0.91490826  0.41260305  0.90887617     0.07900
F397        F  0.95522035  0.55390077  0.85445204    -0.19600
F398        F  0.94602341  0.59833898  0.87733848    -0.15800
F399        F  0.89811370  0.56906412  0.85003528    -0.19300
F400        F  0.83521819  0.39197610  0.92962301    -0.22700
F401        F  0.77792826  0.36183130  0.90606788    -0.24200
F402        F  0.77916586  0.40949755  0.93034258    -0.18200
F403        F  0.95176188  0.37360832  0.92263767    -0.20600
F404        F  0.93583621  0.31031261  0.90486945    -0.21800
F405        F  0.88927188  0.30626601  0.93084586    -0.19000
F406        F  0.78445816  0.33514523  0.84111297    -0.19100
F407        F  0.84135046  0.40885065  0.84162587    -0.22900
F408        F  0.78084271  0.38435790  0.86317510    -0.24500
C409        C  0.01822454  0.70459188  0.02371193    -0.11300
C410        C  0.01223251  0.73834498  0.01380997     0.11300
C411        C  0.03311068  0.78332151  0.02211296    -0.03100
C412        C  0.06228000  0.79389241  0.03943036    -0.05900
C413        C  0.06954430  0.76045172  0.04910180    -0.16600
C414        C  0.04610454  0.71452901  0.04140293     0.02300
C415        C  0.98411154  0.72523190  0.99459686     0.12200
C416        C  0.02277889  0.81917624  0.01332500     0.62800
H417        H  0.07913500  0.82836818  0.04577511     0.12200
C418        C  0.04916229  0.67558670  0.05195523     0.55000
H419        H  0.00102288  0.67020924  0.01724527     0.08000
C420        C  0.00392145  0.72766080  0.97503346    -0.05800
C421        C  0.97528473  0.71415200  0.95746303    -0.06500
C422        C  0.92748675  0.69598876  0.95905762    -0.16100
C423        C  0.90743034  0.69216266  0.97869792    -0.01700
C424        C  0.93639143  0.70757006  0.99619937    -0.09200
C425        C  0.05476051  0.74292782  0.97286132     0.65000
H426        H  0.98975183  0.71609114  0.94232893     0.10500
C427        C  0.85582402  0.67235084  0.98107686     0.63400
H428        H  0.92195942  0.70521166  0.01137575     0.07900
F429        F  0.09279271  0.68167420  0.04930623    -0.19600
F430        F  0.01761471  0.63296992  0.04390743    -0.15800
F431        F  0.03994241  0.67470847  0.07279554    -0.19300
F432        F  0.97698212  0.80531323  0.01694581    -0.22700
F433        F  0.03071438  0.82417256  0.99231323    -0.24200
F434        F  0.04989998  0.86190255  0.02234361    -0.18200
F435        F  0.84380877  0.67420238  0.00131054    -0.20600
F436        F  0.83250297  0.62671777  0.97500103    -0.21800
F437        F  0.84174243  0.69706814  0.96897660    -0.19000
F438        F  0.06706614  0.74341321  0.95246414    -0.19100
F439        F  0.06416909  0.71289843  0.98358406    -0.22900
F440        F  0.08180966  0.78681938  0.98068181    -0.24500
C441        C  0.82661811  0.79088760  0.12653138    -0.11300
C442        C  0.86688638  0.82108034  0.11569963     0.11300
C443        C  0.86861895  0.85808724  0.10437927    -0.03100
C444        C  0.83188527  0.86684004  0.10633294    -0.05900
C445        C  0.79378899  0.83963869  0.11910907    -0.16600
C446        C  0.78974558  0.79939341  0.12840458     0.02300
C447        C  0.90800986  0.81545760  0.11808871     0.12200
C448        C  0.90968013  0.88888592  0.09081216     0.62800
H449        H  0.83403001  0.89675472  0.09884227     0.12200
C450        C  0.74743812  0.76597650  0.14070361     0.55000
H451        H  0.82540195  0.76193161  0.13456879     0.08000
C452        C  0.93704999  0.83286157  0.13556572    -0.05800
C453        C  0.97550225  0.82688303  0.13704183    -0.06500
C454        C  0.98653871  0.80427026  0.12170341    -0.16100
C455        C  0.95685649  0.78658328  0.10411862    -0.01700
C456        C  0.91779125  0.79214545  0.10286335    -0.09200
C457        C  0.92752884  0.85784471  0.15267346     0.65000
H458        H  0.99747827  0.84036920  0.15047669     0.10500
C459        C  0.96615011  0.76284185  0.08645830     0.63400
H460        H  0.89456539  0.77874219  0.08978981     0.07900
F461        F  0.74477097  0.72368092  0.14293644    -0.19600
F462        F  0.70767151  0.75859119  0.13076121    -0.15800
F463        F  0.74943510  0.78360310  0.16014597    -0.19300
F464        F  0.91488876  0.86259829  0.07589332    -0.22700
F465        F  0.94946251  0.91073088  0.10258789    -0.24200
F466        F  0.90407903  0.92235067  0.08088120    -0.18200
F467        F  0.96652155  0.72418678  0.09364372    -0.20600
F468        F  0.00815699  0.79313697  0.07756720    -0.21800
F469        F  0.93281717  0.74867475  0.07116482    -0.19000
F470        F  0.96106471  0.87358350  0.16792162    -0.19100
F471        F  0.88557816  0.82835182  0.16183099    -0.22900
F472        F  0.92640471  0.89548310  0.14465835    -0.24500
C473        C  0.47578736  0.87675737  0.10807428    -0.11300
C474        C  0.44649712  0.84890049  0.12390210     0.11300
C475        C  0.46134252  0.82609555  0.13762280    -0.03100
C476        C  0.50529566  0.83153354  0.13476709    -0.05900
C477        C  0.53304693  0.85605322  0.11781911    -0.16600
C478        C  0.51885040  0.88037914  0.10458201     0.02300
C479        C  0.39795252  0.83813624  0.12339444     0.12200
C480        C  0.42936734  0.79270635  0.15393735     0.62800
H481        H  0.51625684  0.81263047  0.14459919     0.12200
C482        C  0.54758268  0.90824075  0.08627673     0.55000
H483        H  0.46315805  0.89304314  0.09751488     0.08000
C484        C  0.38327085  0.86692424  0.13230508    -0.05800
C485        C  0.33656802  0.85457286  0.13018293    -0.06500
C486        C  0.30529040  0.81557797  0.11882064    -0.16100
C487        C  0.32023164  0.78657159  0.11011151    -0.01700
C488        C  0.36654251  0.79866439  0.11256056    -0.09200
C489        C  0.41713504  0.91103110  0.14335015     0.65000
H490        H  0.32447649  0.87620424  0.13671898     0.10500
C491        C  0.28764084  0.74256899  0.09856385     0.63400
H492        H  0.37907099  0.77767788  0.10570284     0.07900
F493        F  0.59358671  0.93406053  0.09185573    -0.19600
F494        F  0.53376512  0.93833955  0.07912353    -0.15800
F495        F  0.54279425  0.87892352  0.07033892    -0.19300
F496        F  0.39408196  0.75413781  0.14447510    -0.22700
F497        F  0.41053546  0.81322504  0.16574250    -0.24200
F498        F  0.45239312  0.77840974  0.16708911    -0.18200
F499        F  0.27403098  0.75311796  0.08017520    -0.20600
F500        F  0.24922994  0.71533962  0.11046745    -0.21800
F501        F  0.30828050  0.71686936  0.09399527    -0.19000
F502        F  0.39544697  0.93310949  0.15160422    -0.19100
F503        F  0.45030708  0.94085977  0.12961047    -0.22900
F504        F  0.43860443  0.90146302  0.15926601    -0.24500
C505        C  0.52047763  0.40312267  0.89272383    -0.11300
C506        C  0.55382567  0.40843910  0.87827252     0.11300
C507        C  0.54239269  0.37414628  0.86306986    -0.03100
C508        C  0.49889129  0.33372447  0.86396395    -0.05900
C509        C  0.46698132  0.32673389  0.87954922    -0.16600
C510        C  0.47638692  0.36351203  0.89305589     0.02300
C511        C  0.60169792  0.44763570  0.88076148     0.12200
C512        C  0.57699853  0.37872899  0.84681868     0.62800
H513        H  0.49139827  0.30550196  0.85366489     0.12200
C514        C  0.44125108  0.36220495  0.90809550     0.55000
H515        H  0.52928127  0.42976370  0.90415393     0.08000
C516        C  0.61545277  0.49320792  0.87445767    -0.05800
C517        C  0.66187088  0.52810048  0.87740717    -0.06500
C518        C  0.69415326  0.51843096  0.88650777    -0.16100
C519        C  0.68039705  0.47250437  0.89223629    -0.01700
C520        C  0.63403201  0.43810770  0.88973456    -0.09200
C521        C  0.58113977  0.50477199  0.86487639     0.65000
H522        H  0.67316044  0.56333641  0.87296075     0.10500
C523        C  0.71510267  0.45941940  0.89983216     0.63400
H524        H  0.62260999  0.40299755  0.89447411     0.07900
F525        F  0.44143641  0.40347684  0.90710848    -0.19600
F526        F  0.45272364  0.35618654  0.92791443    -0.15800
F527        F  0.39684614  0.32732179  0.90364259    -0.19300
F528        F  0.61197662  0.37440058  0.85592076    -0.22700
F529        F  0.59582373  0.42122488  0.83720083    -0.24200
F530        F  0.55655491  0.34514320  0.83179235    -0.18200
F531        F  0.73439276  0.48138670  0.91824083    -0.20600
F532        F  0.74927529  0.47228909  0.88515841    -0.21800
F533        F  0.69514740  0.41242332  0.90309646    -0.19000
F534        F  0.60236794  0.55007936  0.85816991    -0.19100
F535        F  0.54808405  0.49828450  0.87926499    -0.22900
F536        F  0.55970110  0.47660159  0.84810714    -0.24500
C537        C  0.13122703  0.97849929  0.88816046    -0.11300
C538        C  0.14554480  0.94615654  0.88557485     0.11300
C539        C  0.19233175  0.96150969  0.88074953    -0.03100
C540        C  0.22287821  0.00904417  0.87775339    -0.05900
C541        C  0.20796308  0.04103253  0.87968055    -0.16600
C542        C  0.16188701  0.02595156  0.88554177     0.02300
C543        C  0.10905857  0.89669832  0.88497917     0.12200
C544        C  0.20967670  0.92786115  0.87834673     0.62800
H545        H  0.25835643  0.02151172  0.87330495     0.12200
C546        C  0.14482921  0.05979080  0.88816395     0.55000
H547        H  0.09514715  0.96600258  0.89138409     0.08000
C548        C  0.08452298  0.87162040  0.90269666    -0.05800
C549        C  0.04481545  0.82782701  0.90005915    -0.06500
C550        C  0.02925813  0.80871600  0.88032423    -0.16100
C551        C  0.05703391  0.83219659  0.86286403    -0.01700
C552        C  0.09552980  0.87633788  0.86553387    -0.09200
C553        C  0.09917053  0.89171439  0.92417250     0.65000
H554        H  0.02407831  0.80961328  0.91336291     0.10500
C555        C  0.04622391  0.81220230  0.84121807     0.63400
H556        H  0.11437257  0.89633373  0.85214907     0.07900
F557        F  0.09880477  0.03796290  0.89384456    -0.19600
F558        F  0.14956568  0.08275989  0.86977954    -0.15800
F559        F  0.17031498  0.09140323  0.90332179    -0.19300
F560        F  0.19168005  0.90224582  0.86060009    -0.22700
F561        F  0.19642282  0.89843236  0.89514647    -0.24200
F562        F  0.25735808  0.95045105  0.87705108    -0.18200
F563        F  0.01190712  0.81822946  0.83249633    -0.20600
F564        F  0.03225772  0.76578671  0.84176912    -0.21800
F565        F  0.08468575  0.83374283  0.82860016    -0.19000
F566        F  0.07546377  0.85902715  0.93931881    -0.19100
F567        F  0.09058250  0.92752415  0.92675251    -0.22900
F568        F  0.14580507  0.90812034  0.92696535    -0.24500
C569        C  0.60481783  0.11989803  0.89031130    -0.11300
C570        C  0.60483465  0.15536122  0.87871973     0.11300
C571        C  0.64521869  0.18697679  0.86783359    -0.03100
C572        C  0.68496487  0.18305598  0.86966495    -0.05900
C573        C  0.68574020  0.14934456  0.88226469    -0.16600
C574        C  0.64470935  0.11613351  0.89216561     0.02300
C575        C  0.56379645  0.16137009  0.88002274     0.12200
C576        C  0.64701098  0.22585995  0.85501756     0.62800
H577        H  0.71676727  0.20820372  0.86224765     0.12200
C578        C  0.64310779  0.07680077  0.90444494     0.55000
H579        H  0.57372392  0.09619459  0.89859012     0.08000
C580        C  0.52256212  0.13383913  0.86880952    -0.05800
C581        C  0.48517146  0.14147616  0.87141407    -0.06500
C582        C  0.48774420  0.17546175  0.88488317    -0.16100
C583        C  0.52984654  0.20397370  0.89559213    -0.01700
C584        C  0.56664710  0.19554817  0.89325597    -0.09200
C585        C  0.51803588  0.09642822  0.85429982     0.65000
H586        H  0.45319082  0.12029917  0.86315599     0.10500
C587        C  0.53709264  0.24439453  0.90882302     0.63400
H588        H  0.59844824  0.21588126  0.90177957     0.07900
F589        F  0.59844470  0.04454282  0.91011206    -0.19600
F590        F  0.66932171  0.09352651  0.92217707    -0.15800
F591        F  0.66037493  0.05472377  0.89262631    -0.19300
F592        F  0.64471486  0.25748778  0.86776967    -0.22700
F593        F  0.61039634  0.20856117  0.84131982    -0.24200
F594        F  0.68741069  0.24882068  0.84371367    -0.18200
F595        F  0.51091096  0.22846532  0.92657586    -0.20600
F596        F  0.52465265  0.27191443  0.89784081    -0.21800
F597        F  0.58279992  0.27175109  0.91470195    -0.19000
F598        F  0.47654178  0.07620299  0.84365704    -0.19100
F599        F  0.52025815  0.06239181  0.86542159    -0.22900
F600        F  0.55335138  0.11483183  0.83999243    -0.24500
C601        C  0.11032558  0.18604026  0.86034258    -0.11300
C602        C  0.09832699  0.19065082  0.88045276     0.11300
C603        C  0.12893082  0.19763473  0.89688490    -0.03100
C604        C  0.17056734  0.19874564  0.89252114    -0.05900
C605        C  0.18205133  0.19188081  0.87240502    -0.16600
C606        C  0.15165510  0.18683262  0.85580829     0.02300
C607        C  0.05031798  0.18054991  0.88360656     0.12200
C608        C  0.11702362  0.20232564  0.91899134     0.62800
H609        H  0.19347005  0.20286144  0.90517606     0.12200
C610        C  0.16112621  0.18121979  0.83337632     0.55000
H611        H  0.08551289  0.17960658  0.84819538     0.08000
C612        C  0.03547089  0.21153241  0.87743949    -0.05800
C613        C  0.98771284  0.19520975  0.87621855    -0.06500
C614        C  0.95497931  0.14902765  0.88051819    -0.16100
C615        C  0.97001784  0.11839055  0.88712663    -0.01700
C616        C  0.01760956  0.13509378  0.88887826    -0.09200
C617        C  0.06985329  0.26100922  0.87147202     0.65000
H618        H  0.97547727  0.21787131  0.87098962     0.10500
C619        C  0.93644092  0.06732446  0.89036867     0.63400
H620        H  0.02990822  0.11176685  0.89287362     0.07900
F621        F  0.12929872  0.18245099  0.82008422    -0.19600
F622        F  0.15861557  0.13918524  0.83069427    -0.15800
F623        F  0.20431275  0.21670371  0.82771147    -0.19300
F624        F  0.07919458  0.16152679  0.92545370    -0.22700
F625        F  0.10684754  0.23729001  0.92031207    -0.24200
F626        F  0.15322686  0.21259559  0.93238069    -0.18200
F627        F  0.91312287  0.04828029  0.87217178    -0.20600
F628        F  0.90522720  0.06104655  0.90561916    -0.21800
F629        F  0.95861213  0.04367942  0.89623168    -0.19000
F630        F  0.04825200  0.28614006  0.86747796    -0.19100
F631        F  0.09355994  0.26190155  0.85393304    -0.22900
F632        F  0.10106008  0.28245630  0.88732593    -0.24500
C633        C  0.89592635  0.08606405  0.13781388    -0.11300
C634        C  0.91863346  0.09446188  0.11882184     0.11300
C635        C  0.89555295  0.06519529  0.10187512    -0.03100
C636        C  0.85080718  0.02721235  0.10484146    -0.05900
C637        C  0.82887115  0.01745996  0.12414074    -0.16600
C638        C  0.85119642  0.04823487  0.14080580     0.02300
C639        C  0.96865524  0.12979921  0.11825969     0.12200
C640        C  0.91849069  0.07336502  0.08090382     0.62800
H641        H  0.83362307  0.00324472  0.09233699     0.12200
C642        C  0.82823924  0.04154710  0.16169859     0.55000
H643        H  0.91453867  0.10839628  0.15063985     0.08000
C644        C  0.98531576  0.17784401  0.11744291    -0.05800
C645        C  0.03338153  0.20871048  0.11873994    -0.06500
C646        C  0.06456953  0.19280912  0.12135887    -0.16100
C647        C  0.04770869  0.14473792  0.12230614    -0.01700
C648        C  0.99995957  0.11409359  0.12065119    -0.09200
C649        C  0.95244847  0.19636094  0.11603043     0.65000
H650        H  0.04691345  0.24558234  0.11844908     0.10500
C651        C  0.07980060  0.12574943  0.12553513     0.63400
H652        H  0.98629922  0.07726356  0.12178798     0.07900
F653        F  0.85270742  0.07959347  0.17426968    -0.19600
F654        F  0.82560537  0.00389126  0.17172776    -0.15800
F655        F  0.78430545  0.03485341  0.15911635    -0.19300
F656        F  0.95702416  0.06862278  0.08226249    -0.22700
F657        F  0.93169942  0.11731067  0.07403348    -0.24200
F658        F  0.88902978  0.04237974  0.06632347    -0.18200
F659        F  0.10246623  0.14074754  0.14421561    -0.20600
F660        F  0.11168139  0.14067142  0.10981001    -0.21800
F661        F  0.05620267  0.07803236  0.12558254    -0.19000
F662        F  0.97581008  0.24367322  0.11316784    -0.19100
F663        F  0.92729459  0.18639790  0.13406109    -0.22900
F664        F  0.92243884  0.17637408  0.09963750    -0.24500
C665        C  0.44726447  0.63173427  0.10700937    -0.11300
C666        C  0.45393477  0.60024315  0.11861311     0.11300
C667        C  0.49787806  0.61462070  0.12741779    -0.03100
C668        C  0.53348928  0.66085045  0.12469637    -0.05900
C669        C  0.52691835  0.69237208  0.11290634    -0.16600
C670        C  0.48276042  0.67766441  0.10405080     0.02300
C671        C  0.41429795  0.55197310  0.11998539     0.12200
C672        C  0.50737336  0.58111221  0.13921745     0.62800
H673        H  0.56725273  0.67254068  0.13137662     0.12200
C674        C  0.47228952  0.71036548  0.09205482     0.55000
H675        H  0.41361413  0.61968245  0.10011880     0.08000
C676        C  0.37609001  0.53951209  0.13314793    -0.05800
C677        C  0.33592284  0.49597501  0.13064877    -0.06500
C678        C  0.33235516  0.46521476  0.11510807    -0.16100
C679        C  0.37197180  0.47653742  0.10304365    -0.01700
C680        C  0.41212496  0.51991249  0.10560895    -0.09200
C681        C  0.37695636  0.57287592  0.14912630     0.65000
H682        H  0.30575741  0.48699163  0.13994077     0.10500
C683        C  0.37177275  0.44396348  0.08695636     0.63400
H684        H  0.44142772  0.53017254  0.09552266     0.07900
F685        F  0.42579994  0.69037542  0.08731762    -0.19600
F686        F  0.49654206  0.72291741  0.07371625    -0.15800
F687        F  0.48450641  0.74927534  0.10366324    -0.19300
F688        F  0.50306593  0.54682727  0.12611313    -0.22700
F689        F  0.47635016  0.56124085  0.15523126    -0.24200
F690        F  0.55148336  0.60272951  0.14749483    -0.18200
F691        F  0.34862256  0.44573853  0.06960630    -0.20600
F692        F  0.35037439  0.39945504  0.09468982    -0.21800
F693        F  0.41615139  0.45578681  0.08123068    -0.19000
F694        F  0.33802381  0.55257534  0.16147801    -0.19100
F695        F  0.37893116  0.61055282  0.13941973    -0.22900
F696        F  0.41510885  0.58781994  0.16177292    -0.24500
C697        C  0.15759104  0.59988920  0.13441388    -0.11300
C698        C  0.13967867  0.57098241  0.11719293     0.11300
C699        C  0.11694594  0.58173012  0.10158485    -0.03100
C700        C  0.11769463  0.62400233  0.10258745    -0.05900
C701        C  0.13934610  0.65523956  0.11889526    -0.16600
C702        C  0.15764176  0.64189605  0.13569458     0.02300
C703        C  0.14882700  0.53200652  0.11508986     0.12200
C704        C  0.09260766  0.54892246  0.08381626     0.62800
H705        H  0.10279278  0.63388396  0.09012587     0.12200
C706        C  0.17882133  0.67225537  0.15452618     0.55000
H707        H  0.17354955  0.59013905  0.14644930     0.08000
C708        C  0.19026358  0.53874510  0.10613197    -0.05800
C709        C  0.19681372  0.50070296  0.10409602    -0.06500
C710        C  0.16442318  0.45664557  0.11146133    -0.16100
C711        C  0.12328756  0.45007847  0.12088734    -0.01700
C712        C  0.11613088  0.48805369  0.12238524    -0.09200
C713        C  0.22811773  0.58632338  0.09932424     0.65000
H714        H  0.22835177  0.50543975  0.09727051     0.10500
C715        C  0.08650242  0.40315299  0.12877974     0.63400
H716        H  0.08497834  0.48387620  0.12938180     0.07900
F717        F  0.21535758  0.71468707  0.14878837    -0.19600
F718        F  0.19533598  0.65288124  0.16861980    -0.15800
F719        F  0.14569889  0.67824443  0.16432170    -0.19300
F720        F  0.05756224  0.50754090  0.09147278    -0.22700
F721        F  0.12333561  0.54092516  0.07303095    -0.24200
F722        F  0.07331218  0.56629730  0.07011938    -0.19400
F723        F  0.04774374  0.40371644  0.13565411    -0.20600
F724        F  0.10361645  0.38958692  0.14510424    -0.21800
F725        F  0.07298148  0.37107611  0.11310775    -0.19000
F726        F  0.26474743  0.58497688  0.09028541    -0.19100
F727        F  0.24483982  0.61507995  0.11625189    -0.22900
F728        F  0.21105598  0.60483643  0.08512077    -0.24500
C729        C  0.22411879  0.01917986  0.12041690    -0.11300
C730        C  0.19049850  0.03228180  0.11864622     0.11300
C731        C  0.14308447  0.99781766  0.11845464    -0.03100
C732        C  0.13100371  0.95128702  0.11992991    -0.05900
C733        C  0.16442157  0.93838694  0.12271643    -0.16600
C734        C  0.21172750  0.97261790  0.12320533     0.02300
C735        C  0.20515665  0.08224483  0.11895962     0.12200
C736        C  0.10533159  0.01022338  0.11775316     0.62800
H737        H  0.09496845  0.92445435  0.11990360     0.12200
C738        C  0.24857218  0.95990523  0.12702064     0.55000
H739        H  0.26011772  0.04597314  0.12051202     0.08000
C740        C  0.21605772  0.10706307  0.13766968    -0.05800
C741        C  0.22122240  0.15129236  0.13759326    -0.06500
C742        C  0.21641553  0.17189056  0.11948570    -0.16100
C743        C  0.20972910  0.14850999  0.10036172    -0.01700
C744        C  0.20410754  0.10385776  0.10055272    -0.09200
C745        C  0.22119864  0.08644621  0.15774330     0.65000
H746        H  0.22786245  0.16981057  0.15199297     0.10500
C747        C  0.20723735  0.16938534  0.07988865     0.63400
H748        H  0.19698043  0.08448986  0.08637409     0.07900
F749        F  0.29255495  0.99810633  0.12625660    -0.19600
F750        F  0.24546219  0.92898244  0.11221590    -0.15800
F751        F  0.24246098  0.93992711  0.14632109    -0.19300
F752        F  0.10779060  0.03268104  0.09947352    -0.22700
F753        F  0.11061025  0.03867787  0.13413973    -0.24200
F754        F  0.06169047  0.97160530  0.11907877    -0.18200
F755        F  0.24867271  0.20929371  0.07629699    -0.20600
F756        F  0.17197205  0.17928511  0.08013150    -0.21800
F757        F  0.19914763  0.13989028  0.06352544    -0.19000
F758        F  0.22882932  0.11510422  0.17438564    -0.19100
F759        F  0.25837047  0.07950824  0.15632501    -0.22900
F760        F  0.18164845  0.04475752  0.16167585    -0.24500
C761        C  0.25053395  0.19118977  0.98365139    -0.11300
C762        C  0.26130046  0.23686111  0.98686771     0.11300
C763        C  0.28591076  0.27060759  0.97149193    -0.03100
C764        C  0.30174006  0.25803633  0.95403408    -0.05900
C765        C  0.29126962  0.21253437  0.95090379    -0.16600
C766        C  0.26336877  0.17795722  0.96538624     0.02300
C767        C  0.24853119  0.24919308  0.00684112     0.12200
C768        C  0.29488602  0.31952908  0.97334228     0.62800
H769        H  0.32219582  0.28369194  0.94250273     0.12200
C770        C  0.24739363  0.12754806  0.96157793     0.55000
H771        H  0.23189763  0.16594224  0.99558574     0.08000
C772        C  0.20288101  0.23840197  0.01149989    -0.05800
C773        C  0.19484886  0.25512987  0.03003343    -0.06500
C774        C  0.23096712  0.28237359  0.04371384    -0.16100
C775        C  0.27610401  0.29111148  0.03946231    -0.01700
C776        C  0.28391875  0.27376613  0.02117255    -0.09200
C777        C  0.16308326  0.20982695  0.99689105     0.65000
H778        H  0.16036005  0.24775152  0.03384236     0.10500
C779        C  0.31604856  0.31926384  0.05399109     0.63400
H780        H  0.31829125  0.28056768  0.01751307     0.07900
F781        F  0.21910278  0.11250253  0.94437168    -0.19600
F782        F  0.22253787  0.09996080  0.97807936    -0.15800
F783        F  0.28504793  0.12200862  0.95835558    -0.19300
F784        F  0.32487777  0.34190970  0.98947998    -0.22700
F785        F  0.25378203  0.31861743  0.97683028    -0.24200
F786        F  0.31421493  0.34485814  0.95553193    -0.18200
F787        F  0.35609611  0.32037696  0.04784436    -0.20600
F788        F  0.30543745  0.30093843  0.07368466    -0.21800
F789        F  0.32462202  0.36390985  0.05434273    -0.19000
F790        F  0.12218679  0.20590756  0.00370171    -0.19100
F791        F  0.15653278  0.16590496  0.99533661    -0.22900
F792        F  0.17255163  0.23004929  0.97755461    -0.24500
C793        C  0.78959285  0.15983350  0.72974818    -0.11300
C794        C  0.81209231  0.20389635  0.73862122     0.11300
C795        C  0.83431726  0.24331042  0.72570718    -0.03100
C796        C  0.83496519  0.23694619  0.70426103    -0.05900
C797        C  0.81546178  0.19276434  0.69560485    -0.16600
C798        C  0.79056493  0.15346038  0.70838026     0.02300
C799        C  0.81835855  0.20630458  0.76139995     0.12200
C800        C  0.85838459  0.29175022  0.73453535     0.62800
H801        H  0.85348239  0.26653450  0.69420403     0.12200
C802        C  0.76541068  0.10494476  0.69962561     0.55000
H803        H  0.77338271  0.13012569  0.73990122     0.08000
C804        C  0.78204890  0.19613604  0.77538040    -0.05800
C805        C  0.78799649  0.18887805  0.79636607    -0.06500
C806        C  0.82870593  0.19104160  0.80351030    -0.16100
C807        C  0.86651926  0.20574901  0.78981460    -0.01700
C808        C  0.86015166  0.21190419  0.76888475    -0.09200
C809        C  0.73689778  0.19167884  0.76806317     0.65000
H810        H  0.75970842  0.17846905  0.80707229     0.10500
C811        C  0.91307055  0.21309001  0.79676345     0.63400
H812        H  0.88737484  0.21905808  0.75796269     0.07900
F813        F  0.73925782  0.10324904  0.68272612    -0.19600
F814        F  0.73590801  0.07317748  0.71398548    -0.15800
F815        F  0.79678347  0.09196910  0.69372830    -0.19300
F816        F  0.89412302  0.29822065  0.74738934    -0.22700
F817        F  0.82727651  0.29853914  0.74564051    -0.24200
F818        F  0.87667958  0.32498123  0.71917952    -0.18200
F819        F  0.91196081  0.17137277  0.79700891    -0.20600
F820        F  0.92408230  0.23243006  0.81624705    -0.21800
F821        F  0.94784139  0.24272801  0.78352304    -0.19000
F822        F  0.70700375  0.18356635  0.78428952    -0.19100
F823        F  0.71511126  0.15555990  0.75434097    -0.22900
F824        F  0.74542351  0.23193653  0.75837990    -0.24500
C825        C  0.05004831  0.26794527  0.48956283    -0.11300
C826        C  0.00216289  0.24849621  0.48732276     0.11300
C827        C  0.98280005  0.24286657  0.46730539    -0.03100
C828        C  0.01262369  0.25800881  0.45013950    -0.05900
C829        C  0.06068254  0.27913949  0.45250806    -0.16600
C830        C  0.07974349  0.28300514  0.47241417     0.02300
C831        C  0.97443389  0.23994591  0.50640087     0.12200
C832        C  0.93109857  0.22179470  0.46410969     0.62800
H833        H  0.99879067  0.25487691  0.43471614     0.12200
C834        C  0.13111293  0.30217301  0.47543023     0.55000
H835        H  0.06412487  0.27236094  0.50500327     0.08000
C836        C  0.95909766  0.20000036  0.51870290    -0.05800
C837        C  0.93461667  0.19586466  0.53696447    -0.06500
C838        C  0.92667653  0.23107477  0.54379183    -0.16100
C839        C  0.94412630  0.27213336  0.53170519    -0.01700
C840        C  0.96718229  0.27531818  0.51312989    -0.09200
C841        C  0.96973857  0.16258333  0.51290261     0.65000
H842        H  0.92198914  0.16498582  0.54625799     0.10500
C843        C  0.94060222  0.31348765  0.53846871     0.63400
H844        H  0.98061166  0.30609015  0.50367571     0.07900
F845        F  0.14532200  0.27766845  0.46343654    -0.19600
F846        F  0.14187976  0.29888564  0.49578007    -0.15800
F847        F  0.15526190  0.34809519  0.46971955    -0.19300
F848        F  0.91569680  0.24776232  0.47410022    -0.22700
F849        F  0.90802139  0.17742713  0.47188533    -0.24200
F850        F  0.91978820  0.21981752  0.44342300    -0.18200
F851        F  0.96521491  0.35128337  0.52568529    -0.20600
F852        F  0.95850891  0.32631952  0.55813010    -0.21800
F853        F  0.89498836  0.30264830  0.53811014    -0.19000
F854        F  0.95023641  0.12588255  0.52659761    -0.19100
F855        F  0.01695678  0.18043566  0.51300334    -0.22900
F856        F  0.95276862  0.14589722  0.49345352    -0.24500
C857        C  0.24068344  0.40432014  0.22542353    -0.11300
C858        C  0.19956219  0.38524730  0.23675172     0.11300
C859        C  0.15676240  0.36076382  0.22625843    -0.03100
C860        C  0.15674377  0.35148067  0.20508398    -0.05900
C861        C  0.19799808  0.36645962  0.19416440    -0.16600
C862        C  0.24090284  0.39477682  0.20429237     0.02300
C863        C  0.20193644  0.38365601  0.25970503     0.12200
C864        C  0.11139433  0.34323789  0.23762970     0.62800
H865        H  0.12435602  0.33053642  0.19706041     0.12200
C866        C  0.28800450  0.41345488  0.19431363     0.55000
H867        H  0.27322991  0.42377876  0.23356501     0.08000
C868        C  0.20697317  0.34866687  0.26952549    -0.05800
C869        C  0.20031084  0.34267293  0.29092260    -0.06500
C870        C  0.18782732  0.36958179  0.30279284    -0.16100
C871        C  0.18698227  0.40736244  0.29330754    -0.01700
C872        C  0.19433609  0.41388067  0.27175990    -0.09200
C873        C  0.21674731  0.31596041  0.25729600     0.65000
H874        H  0.20214396  0.31478357  0.29846155     0.10500
C875        C  0.17602800  0.43900863  0.30557918     0.63400
H876        H  0.19170876  0.44105461  0.26396442     0.07900
F877        F  0.31293915  0.39767005  0.20518000    -0.19600
F878        F  0.31146176  0.46108233  0.19513245    -0.15800
F879        F  0.28616587  0.40070754  0.17397411    -0.19300
F880        F  0.10960750  0.38012068  0.24596394    -0.22700
F881        F  0.10763195  0.31350579  0.25332568    -0.24200
F882        F  0.07374719  0.31988221  0.22465379    -0.18200
F883        F  0.20875706  0.46044689  0.32092171    -0.20600
F884        F  0.13276551  0.41379095  0.31441012    -0.21800
F885        F  0.17625324  0.47297748  0.29331354    -0.19000
F886        F  0.21949738  0.28399350  0.26987549    -0.19100
F887        F  0.25833984  0.34057650  0.24706144    -0.22900
F888        F  0.18188444  0.29207884  0.24308106    -0.24500
C889        C  0.40839561  0.17506923  0.72344460    -0.11300
C890        C  0.37738058  0.17999135  0.73608709     0.11300
C891        C  0.34201569  0.18555655  0.72711680    -0.03100
C892        C  0.33560361  0.18067312  0.70571007    -0.05900
C893        C  0.36386666  0.17141337  0.69300994    -0.16600
C894        C  0.40265118  0.17116417  0.70184206     0.02300
C895        C  0.38057615  0.17660410  0.75875282     0.12200
C896        C  0.31086574  0.19608746  0.74015425     0.62800
H897        H  0.30741583  0.18296174  0.69874326     0.12200
C898        C  0.43700556  0.16548097  0.68885800     0.55000
H899        H  0.43615646  0.17261207  0.73078197     0.08000
C900        C  0.35672515  0.13358682  0.76902709    -0.05800
C901        C  0.35329654  0.13317330  0.79061410    -0.06500
C902        C  0.37320088  0.17417568  0.80206947    -0.16100
C903        C  0.40066920  0.21702625  0.79183697    -0.01700
C904        C  0.40399224  0.21733100  0.77018682    -0.09200
C905        C  0.33339085  0.08849733  0.75715044     0.65000
H906        H  0.33312477  0.10073028  0.79868720     0.10500
C907        C  0.42439953  0.26237569  0.80346121     0.63400
H908        H  0.42289690  0.24960653  0.76185891     0.07900
F909        F  0.41472817  0.12396227  0.67845001    -0.19600
F910        F  0.47160109  0.16598554  0.70079187    -0.15800
F911        F  0.45770912  0.20140340  0.67484008    -0.19300
F912        F  0.33723128  0.23761800  0.75017970    -0.22700
F913        F  0.28770341  0.16168983  0.75463692    -0.24200
F914        F  0.27825676  0.19949774  0.72830203    -0.18200
F915        F  0.44675484  0.29980873  0.79028400    -0.20600
F916        F  0.45700678  0.26289236  0.81675286    -0.21800
F917        F  0.39228243  0.26769157  0.81458786    -0.19000
F918        F  0.31398181  0.05063705  0.77021016    -0.19100
F919        F  0.36540907  0.08544258  0.74492352    -0.22900
F920        F  0.29872776  0.08639492  0.74475714    -0.24500
C921        C  0.53058350  0.13651966  0.59400633    -0.11300
C922        C  0.55418394  0.14963597  0.61287179     0.11300
C923        C  0.53312263  0.15697272  0.63014175    -0.03100
C924        C  0.48910980  0.15195310  0.62773888    -0.05900
C925        C  0.46716324  0.14320522  0.60836403    -0.16600
C926        C  0.48718906  0.13291349  0.59137706     0.02300
C927        C  0.60273002  0.15993352  0.61344461     0.12200
C928        C  0.55839518  0.17323610  0.65061939     0.62800
H929        H  0.47344880  0.15900696  0.64071309     0.12200
C930        C  0.46404812  0.11921149  0.57035677     0.55000
H931        H  0.54758440  0.13133727  0.58098001     0.08000
C932        C  0.61451420  0.12524993  0.61610763    -0.05800
C933        C  0.66156514  0.13812729  0.61614970    -0.06500
C934        C  0.69638098  0.18404247  0.61292198    -0.16100
C935        C  0.68441985  0.21860476  0.61016572    -0.01700
C936        C  0.63758248  0.20584416  0.61048796    -0.09200
C937        C  0.57748948  0.07487280  0.61815944     0.65000
H938        H  0.67150677  0.11221195  0.61793781     0.10500
C939        C  0.72110579  0.26889360  0.60747956     0.63400
H940        H  0.62759138  0.23163183  0.60826979     0.07900
F941        F  0.48216909  0.09781547  0.55858009    -0.19600
F942        F  0.47073481  0.15795637  0.55977596    -0.15800
F943        F  0.41725197  0.08858009  0.57256065    -0.19300
F944        F  0.59593173  0.21717622  0.64837620    -0.22700
F945        F  0.57366868  0.14399565  0.65717347    -0.24200
F946        F  0.53031153  0.17449317  0.66586110    -0.18200
F947        F  0.74559716  0.27483946  0.58952036    -0.20600
F948        F  0.75088477  0.28251329  0.62410400    -0.21800
F949        F  0.70229821  0.29729292  0.60647148    -0.19000
F950        F  0.59630717  0.04704723  0.62172710    -0.19100
F951        F  0.55188893  0.06036527  0.60016297    -0.22900
F952        F  0.54840250  0.06899807  0.63438300    -0.24500
C953        C  0.06807361  0.18090237  0.60210481    -0.11300
C954        C  0.09174081  0.18258704  0.62020943     0.11300
C955        C  0.08067566  0.19609202  0.63892379    -0.03100
C956        C  0.04397684  0.20498025  0.63908691    -0.05900
C957        C  0.01775708  0.20034920  0.62126471    -0.16600
C958        C  0.03078770  0.18909902  0.60220601     0.02300
C959        C  0.12673429  0.16805520  0.61933778     0.12200
C960        C  0.10712524  0.20033252  0.65868877     0.62800
H961        H  0.03457070  0.21437883  0.65345038     0.12200
C962        C  0.00463717  0.18342779  0.58219977     0.55000
H963        H  0.07811597  0.17127446  0.58797112     0.08000
C964        C  0.11410448  0.12106416  0.62104436    -0.05800
C965        C  0.14921874  0.10996414  0.62184130    -0.06500
C966        C  0.19584573  0.14403378  0.62035621    -0.16100
C967        C  0.20844752  0.19071559  0.61762965    -0.01700
C968        C  0.17336783  0.20206561  0.61726604    -0.09200
C969        C  0.06386382  0.08285698  0.62193926     0.65000
H970        H  0.14059928  0.07440085  0.62363595     0.10500
C971        C  0.25852590  0.22804860  0.61516087     0.63400
H972        H  0.18198905  0.23762167  0.61555367     0.07900
F973        F  0.02258167  0.17082087  0.56595010    -0.19600
F974        F  0.00737602  0.22467502  0.57691957    -0.15800
F975        F  0.95891982  0.14941255  0.58452576    -0.19300
F976        F  0.15276887  0.23442622  0.65636547    -0.22700
F977        F  0.10517918  0.15908666  0.66313608    -0.24200
F978        F  0.08927373  0.21165339  0.67540472    -0.18200
F979        F  0.27583023  0.22043949  0.59724768    -0.20600
F980        F  0.28412139  0.22742421  0.63182433    -0.21800
F981        F  0.26350758  0.27149403  0.61390414    -0.19000
F982        F  0.05963090  0.03995421  0.62452960    -0.19100
F983        F  0.04188585  0.08222784  0.60375307    -0.22900
F984        F  0.04177161  0.08994406  0.63823897    -0.24500
C985        C  0.27534602  0.96923681  0.48365489    -0.11300
C986        C  0.24693479  0.98664629  0.48941442     0.11300
C987        C  0.20665637  0.97486169  0.47790850    -0.03100
C988        C  0.19472479  0.94359367  0.46150318    -0.05900
C989        C  0.22301421  0.92580127  0.45546612    -0.16600
C990        C  0.26458123  0.93923498  0.46677009     0.02300
C991        C  0.26087122  0.01777444  0.50750458     0.12200
C992        C  0.17711907  0.99618850  0.48265847     0.62800
H993        H  0.16302913  0.93312988  0.45309665     0.12200
C994        C  0.29826383  0.92316738  0.46118558     0.55000
H995        H  0.30634442  0.97961707  0.49264472     0.08000
C996        C  0.24891138  0.00045504  0.52786512    -0.05800
C997        C  0.26326575  0.03193864  0.54426957    -0.06500
C998        C  0.29123287  0.07957715  0.54100196    -0.16100
C999        C  0.30422385  0.09685172  0.52066389    -0.01700
C1000       C  0.28828157  0.06541812  0.50415095    -0.09200
C1001       C  0.22293617  0.94897586  0.53229874     0.65000
H1002       H  0.25443538  0.01941938  0.55997154     0.10500
C1003       C  0.33410622  0.14811779  0.51641144     0.63400
H1004       H  0.29767039  0.07765751  0.48844176     0.07900
F1005       F  0.27758910  0.87603073  0.46402132    -0.19600
F1006       F  0.33762880  0.94371857  0.47334656    -0.15800
F1007       F  0.31206911  0.93438234  0.44087544    -0.19300
F1008       F  0.20311544  0.04347369  0.48018001    -0.22700
F1009       F  0.16127313  0.98634158  0.50272864    -0.24200
F1010       F  0.13921186  0.97984330  0.46968337    -0.18200
F1011       F  0.37789467  0.16412147  0.52435665    -0.20600
F1012       F  0.31473083  0.17158555  0.52548486    -0.21800
F1013       F  0.33833900  0.15777811  0.49548254    -0.19000
F1014       F  0.21361920  0.93965427  0.55311733    -0.19100
F1015       F  0.24925326  0.93012549  0.52608011    -0.22900
F1016       F  0.18141386  0.92765004  0.52177657    -0.24500
C1017       C  0.20313804  0.08199508  0.39510979    -0.11300
C1018       C  0.18506786  0.09441588  0.37838964     0.11300
C1019       C  0.17372988  0.06857752  0.35999262    -0.03100
C1020       C  0.17780043  0.02894032  0.35948717    -0.05900
C1021       C  0.19214446  0.01350591  0.37679734    -0.16600
C1022       C  0.20684321  0.04188806  0.39479498     0.02300
C1023       C  0.17548338  0.13289456  0.38077536     0.12200
C1024       C  0.15615713  0.08222104  0.34109714     0.62800
H1025       H  0.16796467  0.00875623  0.34549936     0.12200
C1026       C  0.22483332  0.02987461  0.41394869     0.55000
H1027       H  0.21244203  0.10313577  0.40882448     0.08000
C1028       C  0.13344634  0.12543097  0.38934540    -0.05800
C1029       C  0.12282738  0.16094415  0.38802938    -0.06500
C1030       C  0.15230599  0.20282412  0.37800442    -0.16100
C1031       C  0.19578206  0.21137483  0.37072699    -0.01700
C1032       C  0.20691035  0.17625675  0.37253658    -0.09200
C1033       C  0.09919443  0.07942254  0.39904829     0.65000
H1034       H  0.08998841  0.15517256  0.39371077     0.10500
C1035       C  0.22971039  0.25665693  0.36044836     0.63400
H1036       H  0.23911768  0.18138844  0.36633040     0.07900
F1037       F  0.24024455  0.06411683  0.42874972    -0.19600
F1038       F  0.26153093  0.02393518  0.40887504    -0.15800
F1039       F  0.18973575  0.98998584  0.42260847    -0.19300
F1040       F  0.18939517  0.12549580  0.33436698    -0.22700
F1041       F  0.11642120  0.08297992  0.34590974    -0.24200
F1042       F  0.14596196  0.05178771  0.32492695    -0.18200
F1043       F  0.23327654  0.29332646  0.37161654    -0.20600
F1044       F  0.21482784  0.25791950  0.34065775    -0.21800
F1045       F  0.27335373  0.26200488  0.35919900    -0.19000
F1046       F  0.06023592  0.07916035  0.40621797    -0.19100
F1047       F  0.11963309  0.07026417  0.41554386    -0.22900
F1048       F  0.08523282  0.04456687  0.38469024    -0.24500
C1049       C  0.10349422  0.50958613  0.39671572    -0.11300
C1050       C  0.12983694  0.54306200  0.38185859     0.11300
C1051       C  0.15365692  0.53289038  0.36665662    -0.03100
C1052       C  0.15332932  0.49083142  0.36791534    -0.05900
C1053       C  0.13041565  0.45907967  0.38392720    -0.16600
C1054       C  0.10261177  0.46721941  0.39778786     0.02300
C1055       C  0.13713850  0.59043684  0.38429711     0.12200
C1056       C  0.18076996  0.56707835  0.34962084     0.62800
H1057       H  0.17387901  0.48402162  0.35721783     0.12200
C1058       C  0.07280625  0.43204668  0.41398571     0.55000
H1059       H  0.08544702  0.51780604  0.40822364     0.08000
C1060       C  0.10441746  0.60300847  0.37804082    -0.05800
C1061       C  0.11546106  0.64928239  0.38043782    -0.06500
C1062       C  0.15713037  0.68242684  0.38961531    -0.16100
C1063       C  0.18948135  0.66943232  0.39613069    -0.01700
C1064       C  0.17861615  0.62351855  0.39345210    -0.09200
C1065       C  0.05760912  0.56748670  0.36955134     0.65000
H1066       H  0.09106080  0.65970932  0.37567347     0.10500
C1067       C  0.23600533  0.70403601  0.40530410     0.63400
H1068       H  0.20271146  0.61286521  0.39845085     0.07900
F1069       F  0.03846031  0.44003310  0.42091384    -0.19600
F1070       F  0.09966884  0.43439961  0.43069145    -0.15800
F1071       F  0.05158032  0.38806855  0.40578303    -0.19300
F1072       F  0.21798067  0.60596997  0.35789271    -0.22700
F1073       F  0.15265887  0.57968211  0.33928322    -0.24200
F1074       F  0.19748485  0.54856204  0.33535931    -0.18200
F1075       F  0.22985190  0.71839374  0.42435922    -0.20600
F1076       F  0.25847436  0.74165247  0.39233471    -0.21800
F1077       F  0.26432577  0.68543092  0.40795353    -0.19000
F1078       F  0.03318703  0.58774019  0.36217226    -0.19100
F1079       F  0.03195392  0.53686736  0.38503688    -0.22900
F1080       F  0.06275989  0.54344775  0.35353397    -0.24500
C1081       C  0.13030019  0.77359839  0.27264102    -0.11300
C1082       C  0.17162594  0.77770340  0.26552152     0.11300
C1083       C  0.20692674  0.78569878  0.27978313    -0.03100
C1084       C  0.20098527  0.79314883  0.30061161    -0.05900
C1085       C  0.16098630  0.79261167  0.30752240    -0.16600
C1086       C  0.12358853  0.77937447  0.29354756     0.02300
C1087       C  0.17868751  0.77996191  0.24284714     0.12200
C1088       C  0.25096061  0.78721552  0.27299040     0.62800
H1089       H  0.22878281  0.80184277  0.31145015     0.12200
C1090       C  0.07656761  0.77081263  0.30037350     0.55000
H1091       H  0.10376175  0.76765639  0.26145813     0.08000
C1092       C  0.15458228  0.74101619  0.22990240    -0.05800
C1093       C  0.15548448  0.74801675  0.20842070    -0.06500
C1094       C  0.17932583  0.79241561  0.19980098    -0.16100
C1095       C  0.20695593  0.83068487  0.21257562    -0.01700
C1096       C  0.20552211  0.82384958  0.23401200    -0.09200
C1097       C  0.12669620  0.69261995  0.23872733     0.65000
H1098       H  0.13466670  0.71920600  0.19833729     0.10500
C1099       C  0.23794799  0.87838563  0.20355280     0.63400
H1100       H  0.22363662  0.85320940  0.24416153     0.07900
F1101       F  0.06303100  0.74442025  0.31819672    -0.19600
F1102       F  0.04308951  0.74712032  0.28551737    -0.15800
F1103       F  0.07827971  0.81220747  0.30388970    -0.19300
F1104       F  0.27586843  0.82423741  0.25994917    -0.22700
F1105       F  0.24018211  0.74701155  0.26276562    -0.24200
F1106       F  0.27891620  0.79152490  0.28960883    -0.18200
F1107       F  0.21178467  0.89522323  0.19473474    -0.20600
F1108       F  0.26606938  0.87599733  0.18864997    -0.21800
F1109       F  0.26599575  0.90938952  0.21845817    -0.19000
F1110       F  0.10986244  0.65960324  0.22335310    -0.19100
F1111       F  0.08953227  0.68821261  0.24976843    -0.22900
F1112       F  0.15410472  0.68362387  0.25165085    -0.24500
C1113       C  0.77131305  0.58777985  0.72896300    -0.11300
C1114       C  0.80841847  0.61998660  0.74096982     0.11300
C1115       C  0.84661563  0.65756018  0.73124984    -0.03100
C1116       C  0.84438449  0.66394756  0.70995458    -0.05900
C1117       C  0.80560730  0.63404290  0.69800712    -0.16600
C1118       C  0.76923393  0.59390991  0.70747476     0.02300
C1119       C  0.80564189  0.61565399  0.76383476     0.12200
C1120       C  0.88922188  0.69136118  0.74339880     0.62800
H1121       H  0.87275252  0.69354216  0.70250080     0.12200
C1122       C  0.72783729  0.55851084  0.69530134     0.55000
H1123       H  0.74318390  0.55861945  0.73675994     0.08000
C1124       C  0.78559914  0.63634064  0.77565806    -0.05800
C1125       C  0.79221269  0.63941462  0.79715265    -0.06500
C1126       C  0.81719113  0.62162612  0.80714148    -0.16100
C1127       C  0.83322009  0.59687147  0.79545662    -0.01700
C1128       C  0.82710636  0.59432875  0.77386063    -0.09200
C1129       C  0.75831110  0.65602750  0.76550613     0.65000
H1130       H  0.77944934  0.65751261  0.80631331     0.10500
C1131       C  0.85911034  0.57579524  0.80551096     0.63400
H1132       H  0.84122271  0.57781468  0.76447047     0.07900
F1133       F  0.70548868  0.57914990  0.68611308    -0.19600
F1134       F  0.69633945  0.52298200  0.70774619    -0.15800
F1135       F  0.74231263  0.53948319  0.68030188    -0.19300
F1136       F  0.90902277  0.66819466  0.75254405    -0.22700
F1137       F  0.87734014  0.71232228  0.75853654    -0.24200
F1138       F  0.92217965  0.72564471  0.73091644    -0.18200
F1139       F  0.87213867  0.55377280  0.79134617    -0.20600
F1140       F  0.83112821  0.54354200  0.82002409    -0.21800
F1141       F  0.89859395  0.61004879  0.81489779    -0.19000
F1142       F  0.74147475  0.67427493  0.77983973    -0.19100
F1143       F  0.72110538  0.62149685  0.75496160    -0.22900
F1144       F  0.78591706  0.69067044  0.75180490    -0.24500
C1145       C  0.55022952  0.36099321  0.61935448    -0.11300
C1146       C  0.54114300  0.39684746  0.62270416     0.11300
C1147       C  0.49480395  0.38673935  0.62437992    -0.03100
C1148       C  0.45878260  0.34076782  0.62161300    -0.05900
C1149       C  0.46822296  0.30528689  0.61767853    -0.16600
C1150       C  0.51447146  0.31508415  0.61750622     0.02300
C1151       C  0.58108250  0.44472835  0.62196516     0.12200
C1152       C  0.48367265  0.42441583  0.62879137     0.62800
H1153       H  0.42307962  0.33235047  0.62203003     0.12200
C1154       C  0.52570500  0.27680652  0.61588003     0.55000
H1155       H  0.58583990  0.36944395  0.61795344     0.08000
C1156       C  0.61381932  0.46399866  0.63814698    -0.05800
C1157       C  0.65439979  0.50657312  0.63476798    -0.06500
C1158       C  0.66413128  0.52948531  0.61560164    -0.16100
C1159       C  0.63032515  0.51068582  0.59963853    -0.01700
C1160       C  0.58942254  0.46857504  0.60322642    -0.09200
C1161       C  0.60650362  0.43944980  0.65875627     0.65000
H1162       H  0.68027514  0.52095462  0.64681332     0.10500
C1163       C  0.63691580  0.53396903  0.57874593     0.63400
H1164       H  0.56433889  0.45252673  0.59093989     0.07900
F1165       F  0.57270385  0.29325387  0.61702333    -0.19600
F1166       F  0.50966148  0.25395116  0.59734916    -0.15800
F1167       F  0.50474576  0.24626314  0.63200917    -0.19300
F1168       F  0.49738147  0.45498289  0.61242289    -0.22700
F1169       F  0.50655538  0.44805201  0.64640346    -0.24200
F1170       F  0.43686649  0.40663595  0.63184856    -0.18200
F1171       F  0.66894982  0.52928068  0.56725938    -0.20600
F1172       F  0.65171265  0.58019858  0.58138046    -0.21800
F1173       F  0.59616999  0.51465942  0.56753004    -0.19000
F1174       F  0.64274689  0.46437405  0.67224497    -0.19100
F1175       F  0.60289374  0.39699525  0.65602845    -0.22900
F1176       F  0.56657775  0.43321804  0.66784646    -0.24500
C1177       C  0.00976963  0.87143429  0.63229187    -0.11300
C1178       C  0.03232743  0.86429892  0.61585312     0.11300
C1179       C  0.00812182  0.82443974  0.60351394    -0.03100
C1180       C  0.96097062  0.79368729  0.60764602    -0.05900
C1181       C  0.93796186  0.80125576  0.62392748    -0.16600
C1182       C  0.96277395  0.84123311  0.63640066     0.02300
C1183       C  0.08114007  0.90051161  0.61203700     0.12200
C1184       C  0.03228694  0.81411086  0.58641117     0.62800
H1185       H  0.94178909  0.76305184  0.59833156     0.12200
C1186       C  0.93983143  0.85360162  0.65342270     0.55000
H1187       H  0.02943291  0.90188487  0.64167633     0.08000
C1188       C  0.09228241  0.94288646  0.60242034    -0.05800
C1189       C  0.13848283  0.97907465  0.60262095    -0.06500
C1190       C  0.17306953  0.97476758  0.61284412    -0.16100
C1191       C  0.16242260  0.93187153  0.62162461    -0.01700
C1192       C  0.11640182  0.89507324  0.62089778    -0.09200
C1193       C  0.05516588  0.95068865  0.59296899     0.65000
H1194       H  0.14733554  0.01239440  0.59621899     0.10500
C1195       C  0.19942804  0.92551491  0.63202968     0.63400
H1196       H  0.10707710  0.86261551  0.62836444     0.07900
F1197       F  0.96864701  0.89752149  0.66101316    -0.19600
F1198       F  0.92831318  0.82299176  0.66969541    -0.15800
F1199       F  0.90053948  0.85230549  0.64588286    -0.19300
F1200       F  0.06588294  0.80661668  0.59485096    -0.22700
F1201       F  0.05281121  0.85079423  0.57280014    -0.24200
F1202       F  0.00186275  0.77527101  0.57536546    -0.18200
F1203       F  0.21454009  0.95172302  0.64977546    -0.20600
F1204       F  0.23631428  0.93928213  0.61875100    -0.21800
F1205       F  0.18318448  0.87993352  0.63738781    -0.19000
F1206       F  0.07384639  0.99324559  0.58334473    -0.19100
F1207       F  0.02540788  0.94884161  0.60811599    -0.22900
F1208       F  0.03028442  0.91716019  0.57843544    -0.24500
C1209       C  0.88841520  0.42161603  0.60805339    -0.11300
C1210       C  0.86188122  0.42483946  0.62389334     0.11300
C1211       C  0.84047366  0.38868447  0.63852631    -0.03100
C1212       C  0.84475857  0.34931742  0.63617523    -0.05900
C1213       C  0.86673056  0.34374782  0.61890600    -0.16600
C1214       C  0.89157600  0.38174012  0.60539475     0.02300
C1215       C  0.85150832  0.46294547  0.62283100     0.12200
C1216       C  0.80998738  0.38991316  0.65549506     0.62800
H1217       H  0.82667686  0.32053052  0.64668372     0.12200
C1218       C  0.92024032  0.38011051  0.58780970     0.55000
H1219       H  0.90445178  0.44952822  0.59695143     0.08000
C1220       C  0.88180339  0.50781415  0.63042891    -0.05800
C1221       C  0.86914583  0.54188073  0.62824645    -0.06500
C1222       C  0.82812086  0.53245508  0.61817054    -0.16100
C1223       C  0.79781338  0.48731375  0.61068269    -0.01700
C1224       C  0.81035328  0.45348354  0.61305980    -0.09200
C1225       C  0.92768241  0.51975832  0.64021864     0.65000
H1226       H  0.89188045  0.57654609  0.63378416     0.10500
C1227       C  0.75157067  0.47425416  0.60085290     0.63400
H1228       H  0.78807954  0.41901137  0.60717990     0.07900
F1229       F  0.95354392  0.42403527  0.58171295    -0.19600
F1230       F  0.89200227  0.35803198  0.57110959    -0.15800
F1231       F  0.94266646  0.35692982  0.59393393    -0.19300
F1232       F  0.77064200  0.38666937  0.64691852    -0.22700
F1233       F  0.83333739  0.43061922  0.66640542    -0.24200
F1234       F  0.79652490  0.35382246  0.66931152    -0.18200
F1235       F  0.75815499  0.49754945  0.58240627    -0.20600
F1236       F  0.72645352  0.48524598  0.61411172    -0.21800
F1237       F  0.72561486  0.42751292  0.59676598    -0.19000
F1238       F  0.95090533  0.56451795  0.64754621    -0.19100
F1239       F  0.95537138  0.51532519  0.62576523    -0.22900
F1240       F  0.92077105  0.49044747  0.65657806    -0.24500
C1241       C  0.81383437  0.89634872  0.59962018    -0.11300
C1242       C  0.80163558  0.91442002  0.61626380     0.11300
C1243       C  0.77840725  0.88586116  0.63337099    -0.03100
C1244       C  0.77278635  0.84142777  0.63425526    -0.05900
C1245       C  0.78852522  0.82443206  0.61838026    -0.16600
C1246       C  0.80769571  0.85163926  0.60028894     0.02300
C1247       C  0.81791838  0.96462592  0.61633228     0.12200
C1248       C  0.76038905  0.90268555  0.65072100     0.62800
H1249       H  0.75725190  0.82000068  0.64773737     0.12200
C1250       C  0.82403578  0.83501659  0.58221118     0.55000
H1251       H  0.83051806  0.91867759  0.58650705     0.08000
C1252       C  0.86303117  0.99707522  0.62317080    -0.05800
C1253       C  0.87569202  0.04375474  0.62426115    -0.06500
C1254       C  0.84509326  0.05889152  0.61860704    -0.16100
C1255       C  0.80061265  0.02686810  0.61113800    -0.01700
C1256       C  0.78772258  0.97990216  0.60999824    -0.09200
C1257       C  0.89744624  0.98238156  0.62958523     0.65000
H1258       H  0.90962134  0.06901391  0.62990431     0.10500
C1259       C  0.76683695  0.04229752  0.60502688     0.63400
H1260       H  0.75365906  0.95456512  0.60456882     0.07900
F1261       F  0.84292766  0.86774125  0.56667018    -0.19600
F1262       F  0.78712964  0.79602004  0.57388173    -0.15800
F1263       F  0.85742558  0.82512979  0.58872580    -0.19300
F1264       F  0.72814484  0.91294978  0.64294002    -0.22700
F1265       F  0.79619268  0.94180520  0.65960352    -0.24200
F1266       F  0.73933045  0.86971883  0.66603049    -0.18200
F1267       F  0.72462880  0.00556166  0.59903781    -0.20600
F1268       F  0.78463838  0.07292205  0.58869417    -0.21800
F1269       F  0.75952554  0.06375771  0.62154347    -0.19000
F1270       F  0.93870134  0.01930795  0.63638249    -0.19100
F1271       F  0.90705368  0.96291532  0.61299607    -0.22900
F1272       F  0.87945760  0.95048304  0.64543999    -0.24500
C1273       C  0.62919804  0.78454782  0.23092264    -0.11300
C1274       C  0.60319062  0.80364950  0.23820721     0.11300
C1275       C  0.58557841  0.82329073  0.22406695    -0.03100
C1276       C  0.59656208  0.82484913  0.20299815    -0.05900
C1277       C  0.62624605  0.80959295  0.19605220    -0.16600
C1278       C  0.64141618  0.78742255  0.21005574     0.02300
C1279       C  0.60339222  0.80996084  0.26086111     0.12200
C1280       C  0.55749865  0.84463447  0.23129730     0.62800
H1281       H  0.58518597  0.84154260  0.19204154     0.12200
C1282       C  0.67155943  0.76808437  0.20325303     0.55000
H1283       H  0.64286167  0.77031355  0.24206232     0.08000
C1284       C  0.57663307  0.77304263  0.27454185    -0.05800
C1285       C  0.58782902  0.77883479  0.29570603    -0.06500
C1286       C  0.62576799  0.81954001  0.30325625    -0.16100
C1287       C  0.64982274  0.85780897  0.28978300    -0.01700
C1288       C  0.63814615  0.85215144  0.26874757    -0.09200
C1289       C  0.53860603  0.72680414  0.26669181     0.65000
H1290       H  0.56950573  0.75008151  0.30621548     0.10500
C1291       C  0.68872509  0.90408909  0.29722450     0.63400
H1292       H  0.65853578  0.87981112  0.25798634     0.07900
F1293       F  0.67426785  0.74010640  0.21828842    -0.19600
F1294       F  0.71585613  0.80365243  0.19932380    -0.15800
F1295       F  0.65337330  0.74194060  0.18562024    -0.19300
F1296       F  0.58436026  0.88230624  0.24365641    -0.22700
F1297       F  0.51971961  0.81277395  0.24245113    -0.24200
F1298       F  0.54148852  0.85928255  0.21488928    -0.18200
F1299       F  0.72839737  0.90187498  0.30026286    -0.20600
F1300       F  0.67638962  0.91608189  0.31550159    -0.21800
F1301       F  0.69856181  0.93871872  0.28298981    -0.19000
F1302       F  0.51319138  0.69778908  0.28272966    -0.19100
F1303       F  0.55761485  0.70554231  0.25551692    -0.22900
F1304       F  0.50863935  0.73282512  0.25415675    -0.24500
C1305       C  0.71553316  0.72212304  0.52722895    -0.11300
C1306       C  0.74226818  0.73095015  0.50943531     0.11300
C1307       C  0.78329123  0.72862316  0.51029730    -0.03100
C1308       C  0.79553181  0.71640618  0.52910836    -0.05900
C1309       C  0.76768799  0.70579718  0.54667883    -0.16600
C1310       C  0.72681592  0.70850053  0.54580265     0.02300
C1311       C  0.72615481  0.74262047  0.49019060     0.12200
C1312       C  0.81324190  0.73777204  0.49134847     0.62800
H1313       H  0.82651684  0.71402813  0.53015470     0.12200
C1314       C  0.69334323  0.69702306  0.56359610     0.55000
H1315       H  0.68476792  0.72501338  0.52647176     0.08000
C1316       C  0.68883691  0.70868191  0.47844762    -0.05800
C1317       C  0.67530683  0.72241614  0.46047964    -0.06500
C1318       C  0.69740981  0.76869803  0.45414459    -0.16100
C1319       C  0.73385114  0.80283963  0.46624529    -0.01700
C1320       C  0.74748205  0.78902630  0.48418538    -0.09200
C1321       C  0.66288388  0.65835175  0.48502092     0.65000
H1322       H  0.64709749  0.69697816  0.45118227     0.10500
C1323       C  0.75683464  0.85372022  0.46081918     0.63400
H1324       H  0.77488899  0.81443632  0.49382199     0.07900
F1325       F  0.65046564  0.66110664  0.55782342    -0.19600
F1326       F  0.68924885  0.73508024  0.56796763    -0.15800
F1327       F  0.70660922  0.68422382  0.58145572    -0.19300
F1328       F  0.82978556  0.78232665  0.48440042    -0.22700
F1329       F  0.78754540  0.70727893  0.47586968    -0.24200
F1330       F  0.85085452  0.73248047  0.49549979    -0.18200
F1331       F  0.78801816  0.88113836  0.47582335    -0.20600
F1332       F  0.72366586  0.86646714  0.45891597    -0.21800
F1333       F  0.78060153  0.86227946  0.44245871    -0.19000
F1334       F  0.63111987  0.63059445  0.47026914    -0.19100
F1335       F  0.63915539  0.65360972  0.50309520    -0.22900
F1336       F  0.69344338  0.64266190  0.48818086    -0.24500
C1337       C  0.87130394  0.99971234  0.38613896    -0.11300
C1338       C  0.85770813  0.03273377  0.38378861     0.11300
C1339       C  0.81043798  0.01810255  0.38050654    -0.03100
C1340       C  0.77866503  0.97054855  0.37856564    -0.05900
C1341       C  0.79263458  0.93775964  0.38046500    -0.16600
C1342       C  0.83930399  0.95223679  0.38502964     0.02300
C1343       C  0.89482103  0.08187766  0.38213056     0.12200
C1344       C  0.79361166  0.05241656  0.37920498     0.62800
H1345       H  0.74268782  0.95853337  0.37520988     0.12200
C1346       C  0.85543772  0.91770527  0.38800921     0.55000
H1347       H  0.90767509  0.01158809  0.38819425     0.08000
C1348       C  0.92174900  0.10764116  0.39924480    -0.05800
C1349       C  0.96065249  0.15147089  0.39568911    -0.06500
C1350       C  0.97335046  0.16988950  0.37567924    -0.16100
C1351       C  0.94439039  0.14536285  0.35878093    -0.01700
C1352       C  0.90624408  0.10124000  0.36230490    -0.09200
C1353       C  0.91000328  0.08871131  0.42108529     0.65000
H1354       H  0.98274583  0.17079808  0.40848172     0.10500
C1355       C  0.95316842  0.16537079  0.33708556     0.63400
H1356       H  0.88566470  0.08073291  0.34938132     0.07900
F1357       F  0.90206661  0.93904258  0.39265253    -0.19600
F1358       F  0.84773252  0.89244133  0.37017664    -0.15800
F1359       F  0.83142435  0.88824344  0.40410266    -0.19300
F1360       F  0.81299592  0.08134770  0.36243679    -0.22700
F1361       F  0.80579243  0.07852016  0.39698900    -0.24200
F1362       F  0.74608270  0.03055713  0.37713090    -0.18200
F1363       F  0.98944040  0.16314787  0.32824838    -0.20600
F1364       F  0.96348987  0.21078023  0.33767149    -0.21800
F1365       F  0.91478200  0.14140043  0.32455997    -0.19000
F1366       F  0.93828554  0.12100837  0.43552579    -0.19100
F1367       F  0.91523733  0.05063487  0.42312199    -0.22900
F1368       F  0.86487913  0.07609157  0.42554351    -0.24500
C1369       C  0.47295552  0.58682566  0.38780404    -0.11300
C1370       C  0.43657118  0.58555765  0.37647680     0.11300
C1371       C  0.44375012  0.62552496  0.36575653    -0.03100
C1372       C  0.48700264  0.66608576  0.36737905    -0.05900
C1373       C  0.52214840  0.66837613  0.38006279    -0.16600
C1374       C  0.51582785  0.62778488  0.38988200     0.02300
C1375       C  0.38970074  0.54454741  0.37893230     0.12200
C1376       C  0.40514111  0.62622300  0.35366933     0.62800
H1377       H  0.49238357  0.69750575  0.36007985     0.12200
C1378       C  0.55377131  0.62774503  0.40273126     0.55000
H1379       H  0.46652349  0.55606485  0.39609131     0.08000
C1380       C  0.37419678  0.50315248  0.36781446    -0.05800
C1381       C  0.32914328  0.46613891  0.37145809    -0.06500
C1382       C  0.29957836  0.46929029  0.38588738    -0.16100
C1383       C  0.31549352  0.51117439  0.39695714    -0.01700
C1384       C  0.36067546  0.54758017  0.39349725    -0.09200
C1385       C  0.40507202  0.49818800  0.35223631     0.65000
H1386       H  0.31665642  0.43420735  0.36306905     0.10500
C1387       C  0.28485365  0.51874443  0.41176405     0.63400
H1388       H  0.37386383  0.57941105  0.40205808     0.07900
F1389       F  0.54360528  0.58337467  0.40750488    -0.19600
F1390       F  0.55932151  0.65093843  0.42103141    -0.15800
F1391       F  0.59486514  0.64900585  0.39189252    -0.19300
F1392       F  0.37075353  0.62110851  0.36696572    -0.22700
F1393       F  0.38662419  0.59075556  0.33950436    -0.24200
F1394       F  0.42071978  0.66724624  0.34300425    -0.18200
F1395       F  0.27605984  0.49151771  0.42913079    -0.20600
F1396       F  0.24371665  0.50797784  0.40215294    -0.21800
F1397       F  0.30537728  0.56413299  0.41820065    -0.19000
F1398       F  0.38271904  0.45566753  0.34260467    -0.19100
F1399       F  0.44382405  0.50269792  0.36202761    -0.22900
F1400       F  0.41868119  0.53186097  0.33720635    -0.24500
C1401       C  0.97472052  0.84988688  0.38727410    -0.11300
C1402       C  0.94351449  0.80228742  0.38785673     0.11300
C1403       C  0.96051160  0.77124342  0.38775528    -0.03100
C1404       C  0.00862266  0.78930527  0.38630086    -0.05900
C1405       C  0.03953928  0.83696107  0.38515185    -0.16600
C1406       C  0.02261288  0.86787249  0.38628886     0.02300
C1407       C  0.89356696  0.78723358  0.38637841     0.12200
C1408       C  0.92809619  0.71947609  0.38866441     0.62800
H1409       H  0.02238935  0.76632617  0.38524839     0.12200
C1410       C  0.05502735  0.91967145  0.38600839     0.55000
H1411       H  0.96097641  0.87297275  0.38701978     0.08000
C1412       C  0.86938474  0.79309189  0.40285262    -0.05800
C1413       C  0.82614941  0.78896183  0.39880903    -0.06500
C1414       C  0.80709287  0.78031786  0.37883094    -0.16100
C1415       C  0.82943121  0.77025358  0.36282587    -0.01700
C1416       C  0.87263992  0.77441740  0.36688819    -0.09200
C1417       C  0.88986302  0.80531458  0.42442934     0.65000
H1418       H  0.80841178  0.79569575  0.41101765     0.10500
C1419       C  0.80858084  0.75601180  0.34140816     0.63400
H1420       H  0.89183205  0.77053069  0.35443074     0.07900
F1421       F  0.03142744  0.94344292  0.38791509    -0.19600
F1422       F  0.07913846  0.93278517  0.36764634    -0.15800
F1423       F  0.08583916  0.93215980  0.40226967    -0.19300
F1424       F  0.90205013  0.70463020  0.37081219    -0.22700
F1425       F  0.89887965  0.70820455  0.40538652    -0.24200
F1426       F  0.95201420  0.69599765  0.39069128    -0.18200
F1427       F  0.81394403  0.79404648  0.33065438    -0.20600
F1428       F  0.76211634  0.72344877  0.34284487    -0.21800
F1429       F  0.82970468  0.73673016  0.33023292    -0.19000
F1430       F  0.85887428  0.80527013  0.43848690    -0.19100
F1431       F  0.92870927  0.84872113  0.42446605    -0.22900
F1432       F  0.90189233  0.77358288  0.43103811    -0.24500
C1433       C  0.37391469  0.83429056  0.36666892    -0.11300
C1434       C  0.40377823  0.85023121  0.38368922     0.11300
C1435       C  0.39395222  0.87101455  0.40030010    -0.03100
C1436       C  0.35129376  0.86962439  0.40050267    -0.05900
C1437       C  0.31888290  0.84941668  0.38439442    -0.16600
C1438       C  0.33164932  0.83391861  0.36652908     0.02300
C1439       C  0.44351942  0.84207090  0.38416054     0.12200
C1440       C  0.42824302  0.89419261  0.41776652     0.62800
H1441       H  0.34221626  0.88304063  0.41370555     0.12200
C1442       C  0.30080718  0.81583058  0.34760655     0.55000
H1443       H  0.38328979  0.82027390  0.35379064     0.08000
C1444       C  0.43809046  0.79948616  0.39102429    -0.05800
C1445       C  0.47692970  0.79393174  0.39139544    -0.06500
C1446       C  0.52050480  0.82882202  0.38466586    -0.16100
C1447       C  0.52562935  0.87086332  0.37713229    -0.01700
C1448       C  0.48682459  0.87683204  0.37711876    -0.09200
C1449       C  0.39143270  0.75996771  0.39789055     0.65000
H1450       H  0.47351465  0.76181795  0.39685649     0.10500
C1451       C  0.57179319  0.90936538  0.36943894     0.63400
H1452       H  0.48985450  0.90866305  0.37150671     0.07900
F1453       F  0.32049309  0.80299592  0.33219118    -0.19600
F1454       F  0.29360969  0.85003078  0.33970769    -0.15800
F1455       F  0.25894977  0.77759288  0.35269636    -0.19300
F1456       F  0.46892578  0.92997286  0.40992286    -0.22700
F1457       F  0.43736475  0.86290550  0.42748073    -0.24200
F1458       F  0.41184773  0.91225346  0.43241135    -0.18200
F1459       F  0.58353454  0.89572944  0.35147601    -0.20600
F1460       F  0.60556798  0.91973517  0.38418421    -0.21800
F1461       F  0.57051632  0.94916741  0.36524652    -0.19000
F1462       F  0.39401159  0.72176538  0.40402437    -0.19100
F1463       F  0.36017116  0.74670113  0.38179697    -0.22900
F1464       F  0.37510328  0.77362100  0.41433786    -0.24500
loop_ 
_geom_bond_atom_site_label_1 
_geom_bond_atom_site_label_2 
_geom_bond_distance 
_geom_bond_site_symmetry_2 
_ccdc_geom_bond_type 
O1           Ni7   1.928       .  S
O1           C22   1.270       .  A
O2          Ni25   1.896       .  S
O2           C11   1.261       .  A
O3           Ni7   1.921       .  S
O3          Ni25   1.913       .  S
O3          Ni19   1.921       .  S
O3           H26   0.966       .  S
C4           O21   1.275       .  A
C4           O13   1.276       .  A
C4         C1446   1.486       .  S
O5          Ni24   1.938       .  S
O5           C11   1.272       .  A
O6          Ni24   1.903       .  S
O6            C8   1.267       .  A
Ni7          O10   1.932       .  S
Ni7          O12   1.905       .  S
C8           O18   1.273       .  A
C8         C1373   1.481       .  S
O9          Ni25   1.908       .  S
O9           C15   1.269       .  A
O10          C15   1.273       .  A
C11        C1318   1.479       .  S
O12          C14   1.268       .  A
O13         Ni24   1.927       .  S
C14          O20   1.273       .  A
C14        C1341   1.476       .  S
C15        C1414   1.489       .  S
H16          O17   0.967       .  S
O17         Ni25   1.909       .  S
O17         Ni19   1.914       .  S
O17         Ni24   1.920       .  S
O18         Ni19   1.934       .  S
Ni19         O23   1.909       .  S
Ni19         O21   1.922       .  S
O20         Ni25   1.939       .  S
C22          O23   1.268       .  A
C22        C1286   1.483       .  S
O27         Ni33   1.926       .  S
O27          C48   1.273       .  A
O28         Ni51   1.902       .  S
O28          C37   1.265       .  A
O29         Ni33   1.911       .  S
O29         Ni51   1.912       .  S
O29         Ni45   1.925       .  S
O29          H52   0.966       .  S
C30          O47   1.279       .  A
C30          O39   1.276       .  A
C30        C1222   1.483       .  S
O31         Ni50   1.937       .  S
O31          C37   1.272       .  A
O32         Ni50   1.906       .  S
O32          C34   1.267       .  A
Ni33         O36   1.932       .  S
Ni33         O38   1.903       .  S
C34          O44   1.275       .  A
C34        C1158   1.493       .  S
O35         Ni51   1.913       .  S
O35          C41   1.269       .  A
O36          C41   1.275       .  A
C37        C1309   1.471       .  S
O38          C40   1.268       .  A
O39         Ni50   1.922       .  S
C40          O46   1.276       .  A
C40        C1181   1.489       .  S
C41        C1245   1.490       .  S
H42          O43   0.966       .  S
O43         Ni51   1.906       .  S
O43         Ni45   1.905       .  S
O43         Ni50   1.907       .  S
O44         Ni45   1.933       .  S
Ni45         O49   1.918       .  S
Ni45         O47   1.933       .  S
O46         Ni51   1.944       .  S
C48          O49   1.270       .  A
C48        C1117   1.494       .  S
O53         Ni59   1.933       .  S
O53          C74   1.270       .  A
O54         Ni77   1.906       .  S
O54          C63   1.270       .  A
O55         Ni59   1.907       .  S
O55         Ni77   1.906       .  S
O55         Ni71   1.914       .  S
O55          H78   0.966       .  S
C56          O73   1.276       .  A
C56          O65   1.277       .  A
C56        C1062   1.487       .  S
O57         Ni76   1.935       .  S
O57          C63   1.271       .  A
O58         Ni76   1.906       .  S
O58          C60   1.270       .  A
Ni59         O62   1.929       .  S
Ni59         O64   1.905       .  S
C60          O70   1.274       .  A
C60        C1437   1.496       .  S
O61         Ni77   1.927       .  S
O61          C67   1.276       .  A
O62          C67   1.278       .  A
C63         C989   1.498       .  S
O64          C66   1.268       .  A
O65         Ni76   1.930       .  S
C66          O72   1.274       .  A
C66        C1405   1.476       .  S
C67        C1021   1.512   1_565  S
H68          O69   0.966       .  S
O69         Ni77   1.918       .  S
O69         Ni71   1.906       .  S
O69         Ni76   1.907       .  S
O70         Ni71   1.937       .  S
Ni71         O75   1.905       .  S
Ni71         O73   1.926       .  S
O72         Ni77   1.940       .  S
C74          O75   1.268       .  A
C74        C1085   1.489       .  S
O79         Ni85   1.926       .  S
O79         C100   1.272       .  A
O80        Ni103   1.897       .  S
O80          C89   1.266       .  A
O81         Ni85   1.908       .  S
O81        Ni103   1.905       .  S
O81         Ni97   1.914       .  S
O81         H104   0.966       .  S
C82          O99   1.275       .  A
C82          O91   1.278       .  A
C82        C1149   1.478       .  S
O83        Ni102   1.940       .  S
O83          C89   1.274       .  A
O84        Ni102   1.907       .  S
O84          C86   1.268       .  A
Ni85         O88   1.924       .  S
Ni85         O90   1.905       .  S
C86          O96   1.275       .  A
C86         C925   1.493       .  S
O87        Ni103   1.922       .  S
O87          C93   1.276       .  A
O88          C93   1.275       .  A
C89         C998   1.478       .  S
O90          C92   1.268       .  A
O91        Ni102   1.932       .  S
C92          O98   1.270       .  A
C92         C966   1.469       .  S
C93        C1190   1.478   1_545  S
H94          O95   0.960       .  S
O95        Ni103   1.912       .  S
O95         Ni97   1.901       .  S
O95        Ni102   1.904       .  S
O96         Ni97   1.930       .  S
Ni97        O101   1.906       .  S
Ni97         O99   1.921       .  S
O98        Ni103   1.928       .  S
C100        O101   1.266       .  A
C100        C893   1.488       .  S
O105       Ni111   1.922       .  S
O105        C126   1.272       .  A
O106       Ni129   1.903       .  S
O106        C115   1.264       .  A
O107       Ni111   1.915       .  S
O107       Ni129   1.912       .  S
O107       Ni123   1.919       .  S
O107        H130   0.966       .  S
C108        O125   1.274       .  A
C108        O117   1.274       .  A
C108       C1382   1.491       .  S
O109       Ni128   1.939       .  S
O109        C115   1.272       .  A
O110       Ni128   1.907       .  S
O110        C112   1.269       .  A
Ni111       O114   1.933       .  S
Ni111       O116   1.903       .  S
C112        O122   1.276       .  A
C112       C1053   1.490       .  S
O113       Ni129   1.905       .  S
O113        C119   1.268       .  A
O114        C119   1.272       .  A
C115        C829   1.480       .  S
O116        C118   1.267       .  A
O117       Ni128   1.926       .  S
C118        O124   1.276       .  A
C118       C1030   1.484       .  S
C119       C1350   1.485   1_455  S
H120        O121   0.966       .  S
O121       Ni129   1.912       .  S
O121       Ni123   1.918       .  S
O121       Ni128   1.916       .  S
O122       Ni123   1.937       .  S
Ni123       O127   1.920       .  S
Ni123       O125   1.917       .  S
O124       Ni129   1.950       .  S
C126        O127   1.270       .  A
C126        C870   1.491       .  S
O131       Ni137   1.928       .  S
O131        C152   1.268       .  A
O132       Ni155   1.909       .  S
O132        C141   1.270       .  A
O133       Ni137   1.913       .  S
O133       Ni155   1.911       .  S
O133       Ni149   1.918       .  S
O133        H156   0.965       .  S
C134        O151   1.278       .  A
C134        O143   1.277       .  A
C134        C934   1.477       .  S
O135       Ni154   1.940       .  S
O135        C141   1.273       .  A
O136       Ni154   1.913       .  S
O136        C138   1.269       .  A
Ni137       O140   1.924       .  S
Ni137       O142   1.899       .  S
C138        O148   1.273       .  A
C138       C1213   1.492       .  S
O139       Ni155   1.917       .  S
O139        C145   1.273       .  A
O140        C145   1.276       .  A
C141        C838   1.500       .  S
O142        C144   1.267       .  A
O143       Ni154   1.926       .  S
C144        O150   1.275       .  A
C144       C1254   1.477       .  S
C145        C957   1.494   1_655  S
H146        O147   0.957       .  S
O147       Ni155   1.907       .  S
O147       Ni149   1.907       .  S
O147       Ni154   1.908       .  S
O148       Ni149   1.932       .  S
Ni149       O153   1.914       .  S
Ni149       O151   1.926       .  S
O150       Ni155   1.943       .  S
C152        O153   1.268       .  A
C152        C797   1.481       .  S
O157       Ni163   1.932       .  S
O157        C178   1.272       .  A
O158       Ni181   1.904       .  S
O158        C167   1.265       .  A
O159       Ni163   1.923       .  S
O159       Ni181   1.921       .  S
O159       Ni175   1.934       .  S
O159        H182   0.967       .  S
C160        O177   1.275       .  A
C160        O169   1.280       .  A
C160        C710   1.494       .  S
O161       Ni180   1.951       .  S
O161        C167   1.276       .  A
O162       Ni180   1.914       .  S
O162        C164   1.270       .  A
Ni163       O166   1.931       .  S
Ni163       O168   1.910       .  S
C164        O174   1.274       .  A
C164        C678   1.497       .  S
O165       Ni181   1.921       .  S
O165        C171   1.269       .  A
O166        C171   1.273       .  A
C167        C774   1.484       .  S
O168        C170   1.272       .  A
O169       Ni180   1.941       .  S
C170        O176   1.279       .  A
C170        C646   1.481       .  S
C171        C742   1.499       .  S
H172        O173   0.966       .  S
O173       Ni181   1.909       .  S
O173       Ni175   1.907       .  S
O173       Ni180   1.919       .  S
O174       Ni175   1.938       .  S
Ni175       O179   1.910       .  S
Ni175       O177   1.923       .  S
O176       Ni181   1.953       .  S
C178        O179   1.268       .  A
C178        C861   1.480       .  S
O183       Ni189   1.927       .  S
O183        C204   1.271       .  A
O184       Ni207   1.898       .  S
O184        C193   1.262       .  A
O185       Ni189   1.910       .  S
O185       Ni207   1.900       .  S
O185       Ni201   1.911       .  S
O185        H208   0.967       .  S
C186        O203   1.276       .  A
C186        O195   1.277       .  A
C186        C582   1.493       .  S
O187       Ni206   1.944       .  S
O187        C193   1.274       .  A
O188       Ni206   1.906       .  S
O188        C190   1.269       .  A
Ni189       O192   1.928       .  S
Ni189       O194   1.910       .  S
C190        O200   1.272       .  A
C190        C509   1.482       .  S
O191       Ni207   1.913       .  S
O191        C197   1.276       .  A
O192        C197   1.275       .  A
C193        C765   1.478       .  S
O194        C196   1.268       .  A
O195       Ni206   1.931       .  S
C196        O202   1.268       .  A
C196        C541   1.474       .  S
C197        C605   1.501       .  S
H198        O199   0.967       .  S
O199       Ni207   1.912       .  S
O199       Ni201   1.913       .  S
O199       Ni206   1.911       .  S
O200       Ni201   1.928       .  S
Ni201       O205   1.909       .  S
Ni201       O203   1.920       .  S
O202       Ni207   1.924       .  S
C204        O205   1.266       .  A
C204        C902   1.482       .  S
O209       Ni215   1.927       .  S
O209        C230   1.271       .  A
O210       Ni233   1.909       .  S
O210        C219   1.268       .  A
O211       Ni215   1.912       .  S
O211       Ni233   1.913       .  S
O211       Ni227   1.923       .  S
O211        H234   0.966       .  S
C212        O229   1.277       .  A
C212        O221   1.275       .  A
C212        C486   1.478       .  S
O213       Ni232   1.933       .  S
O213        C219   1.272       .  A
O214       Ni232   1.908       .  S
O214        C216   1.270       .  A
Ni215       O218   1.936       .  S
Ni215       O220   1.908       .  S
C216        O226   1.275       .  A
C216        C701   1.495       .  S
O217       Ni233   1.917       .  S
O217        C223   1.271       .  A
O218        C223   1.276       .  A
C219        C413   1.490       .  S
O220        C222   1.269       .  A
O221       Ni232   1.919       .  S
C222        O228   1.277       .  A
C222        C733   1.478       .  S
C223        C454   1.509   1_455  S
H224        O225   0.968       .  S
O225       Ni233   1.907       .  S
O225       Ni227   1.904       .  S
O225       Ni232   1.904       .  S
O226       Ni227   1.940       .  S
Ni227       O231   1.909       .  S
Ni227       O229   1.925       .  S
O228       Ni233   1.950       .  S
C230        O231   1.268       .  A
C230       C1094   1.475       .  S
O235       Ni241   1.928       .  S
O235        C256   1.271       .  A
O236       Ni259   1.907       .  S
O236        C245   1.267       .  A
O237       Ni241   1.906       .  S
O237       Ni259   1.906       .  S
O237       Ni253   1.905       .  S
O237        H260   0.967       .  S
C238        O255   1.273       .  A
C238        O247   1.275       .  A
C238        C518   1.481       .  S
O239       Ni258   1.937       .  S
O239        C245   1.272       .  A
O240       Ni258   1.906       .  S
O240        C242   1.271       .  A
Ni241       O244   1.925       .  S
Ni241       O246   1.909       .  S
C242        O252   1.277       .  A
C242        C381   1.498       .  S
O243       Ni259   1.922       .  S
O243        C249   1.278       .  A
O244        C249   1.275       .  A
C245        C422   1.480       .  S
O246        C248   1.267       .  A
O247       Ni258   1.928       .  S
C248        O254   1.272       .  A
C248        C349   1.483       .  S
C249        C550   1.493   1_655  S
H250        O251   0.966       .  S
O251       Ni259   1.923       .  S
O251       Ni253   1.920       .  S
O251       Ni258   1.912       .  S
O252       Ni253   1.943       .  S
Ni253       O257   1.923       .  S
Ni253       O255   1.920       .  S
O254       Ni259   1.940       .  S
C256        O257   1.271       .  A
C256       C1126   1.487       .  S
O261       Ni267   1.929       .  S
O261        C282   1.271       .  A
O262       Ni285   1.910       .  S
O262        C271   1.268       .  A
O263       Ni267   1.913       .  S
O263       Ni285   1.909       .  S
O263       Ni279   1.918       .  S
O263        H286   0.967       .  S
C264        O281   1.276       .  A
C264        O273   1.276       .  A
C264        C669   1.492       .  S
O265       Ni284   1.937       .  S
O265        C271   1.273       .  A
O266       Ni284   1.906       .  S
O266        C268   1.268       .  A
Ni267       O270   1.932       .  S
Ni267       O272   1.904       .  S
C268        O278   1.271       .  A
C268        C477   1.481       .  S
O269       Ni285   1.914       .  S
O269        C275   1.272       .  A
O270        C275   1.272       .  A
C271        C326   1.479       .  S
O272        C274   1.269       .  A
O273       Ni284   1.930       .  S
C274        O280   1.278       .  A
C274        C445   1.487       .  S
C275        C637   1.487   1_565  S
H276        O277   0.966       .  S
O277       Ni285   1.918       .  S
O277       Ni279   1.911       .  S
O277       Ni284   1.917       .  S
O278       Ni279   1.919       .  S
Ni279       O283   1.907       .  S
Ni279       O281   1.927       .  S
O280       Ni285   1.948       .  S
C282        O283   1.267       .  A
C282       C1277   1.480       .  S
O287       Ni293   1.927       .  S
O287        C308   1.271       .  A
O288       Ni311   1.909       .  S
O288        C297   1.267       .  A
O289       Ni293   1.912       .  S
O289       Ni311   1.915       .  S
O289       Ni305   1.920       .  S
O289        H312   0.966       .  S
C290        O307   1.276       .  A
C290        O299   1.277       .  A
C290        C390   1.485       .  S
O291       Ni310   1.936       .  S
O291        C297   1.274       .  A
O292       Ni310   1.912       .  S
O292        C294   1.269       .  A
Ni293       O296   1.928       .  S
Ni293       O298   1.908       .  S
C294        O304   1.273       .  A
C294        C573   1.481       .  S
O295       Ni311   1.920       .  S
O295        C301   1.274       .  A
O296        C301   1.272       .  A
C297        C317   1.488       .  S
O298        C300   1.269       .  A
O299       Ni310   1.929       .  S
C300        O306   1.274       .  A
C300        C614   1.479       .  S
C301        C358   1.496   1_545  S
H302        O303   0.966       .  S
O303       Ni311   1.911       .  S
O303       Ni305   1.904       .  S
O303       Ni310   1.906       .  S
O304       Ni305   1.930       .  S
Ni305       O309   1.909       .  S
Ni305       O307   1.921       .  S
O306       Ni311   1.943       .  S
C308        O309   1.268       .  A
C308        C806   1.485       .  S
C313        C314   1.401       .  A
C313        C318   1.408       .  A
C313        H323   1.083       .  S
C314        C319   1.484   1_546  S
C314        C315   1.414       .  A
C315        C316   1.406       .  A
C315        C320   1.520       .  S
C316        C317   1.407       .  A
C316        H321   1.083       .  S
C317        C318   1.421       .  A
C318        C322   1.517       .  S
C319        C324   1.416       .  A
C319        C328   1.400   1_565  A
C320        F336   1.382   1_556  S
C320        F337   1.382   1_545  S
C320        F338   1.385       .  S
C322        F333   1.380       .  S
C322        F334   1.385       .  S
C322        F335   1.384       .  S
C324        C325   1.409       .  A
C324        C329   1.519   1_554  S
C325        C326   1.404       .  A
C325        H330   1.083       .  S
C326        C327   1.417       .  A
C327        C328   1.406   1_565  A
C327        C331   1.515   1_565  S
C328        H332   1.083       .  S
C329        F342   1.384       .  S
C329        F343   1.382       .  S
C329        F344   1.382       .  S
C331        F339   1.378       .  S
C331        F340   1.382   1_545  S
C331        F341   1.385       .  S
C345        C346   1.403       .  A
C345        C350   1.409       .  A
C345        H355   1.083       .  S
C346        C351   1.492       .  S
C346        C347   1.419       .  A
C347        C348   1.411       .  A
C347        C352   1.519       .  S
C348        C349   1.403       .  A
C348        H353   1.083       .  S
C349        C350   1.418       .  A
C350        C354   1.518       .  S
C351        C356   1.417       .  A
C351        C360   1.399       .  A
C352        F368   1.382       .  S
C352        F369   1.383       .  S
C352        F370   1.384       .  S
C354        F365   1.384       .  S
C354        F366   1.382       .  S
C354        F367   1.383       .  S
C356        C357   1.412       .  A
C356        C361   1.517       .  S
C357        C358   1.409       .  A
C357        H362   1.083       .  S
C358        C359   1.427       .  A
C359        C360   1.406       .  A
C359        C363   1.522       .  S
C360        H364   1.083       .  S
C361        F374   1.385       .  S
C361        F375   1.382       .  S
C361        F376   1.383       .  S
C363        F371   1.383       .  S
C363        F372   1.384       .  S
C363        F373   1.385       .  S
C377        C378   1.403       .  A
C377        C382   1.414       .  A
C377        H387   1.083       .  S
C378        C383   1.487       .  S
C378        C379   1.414       .  A
C379        C380   1.403       .  A
C379        C384   1.523       .  S
C380        C381   1.409       .  A
C380        H385   1.080       .  S
C381        C382   1.422       .  A
C382        C386   1.514       .  S
C383        C388   1.416       .  A
C383        C392   1.401       .  A
C384        F400   1.382       .  S
C384        F401   1.383       .  S
C384        F402   1.384       .  S
C386        F397   1.385       .  S
C386        F398   1.383       .  S
C386        F399   1.377       .  S
C388        C389   1.408       .  A
C388        C393   1.519       .  S
C389        C390   1.406       .  A
C389        H394   1.083       .  S
C390        C391   1.419       .  A
C391        C392   1.408       .  A
C391        C395   1.517       .  S
C392        H396   1.083       .  S
C393        F406   1.385       .  S
C393        F407   1.383       .  S
C393        F408   1.383       .  S
C395        F403   1.385       .  S
C395        F404   1.384       .  S
C395        F405   1.382       .  S
C409        C410   1.400       .  A
C409        C414   1.407       .  A
C409        H419   1.083       .  S
C410        C415   1.487   1_454  S
C410        C411   1.415       .  A
C411        C412   1.410       .  A
C411        C416   1.519       .  S
C412        C413   1.408       .  A
C412        H417   1.083       .  S
C413        C414   1.424       .  A
C414        C418   1.521       .  S
C415        C420   1.417   1_655  A
C415        C424   1.403       .  A
C416        F432   1.383   1_455  S
C416        F433   1.382   1_554  S
C416        F434   1.384       .  S
C418        F429   1.383       .  S
C418        F430   1.384       .  S
C418        F431   1.384       .  S
C420        C421   1.408   1_455  A
C420        C425   1.520       .  S
C421        C422   1.403       .  A
C421        H426   1.083       .  S
C422        C423   1.417       .  A
C423        C424   1.410       .  A
C423        C427   1.517       .  S
C424        H428   1.083   1_556  S
C425        F438   1.384       .  S
C425        F439   1.383       .  S
C425        F440   1.382       .  S
C427        F435   1.385   1_556  S
C427        F436   1.382       .  S
C427        F437   1.383       .  S
C441        C442   1.402       .  A
C441        C446   1.408       .  A
C441        H451   1.084       .  S
C442        C447   1.491       .  S
C442        C443   1.416       .  A
C443        C444   1.409       .  A
C443        C448   1.518       .  S
C444        C445   1.406       .  A
C444        H449   1.083       .  S
C445        C446   1.420       .  A
C446        C450   1.518       .  S
C447        C452   1.413       .  A
C447        C456   1.402       .  A
C448        F464   1.382       .  S
C448        F465   1.382       .  S
C448        F466   1.385       .  S
C450        F461   1.385       .  S
C450        F462   1.384       .  S
C450        F463   1.382       .  S
C452        C453   1.404       .  A
C452        C457   1.523       .  S
C453        C454   1.413       .  A
C453        H458   1.081       .  S
C454        C455   1.430       .  A
C455        C456   1.415       .  A
C455        C459   1.519       .  S
C456        H460   1.083       .  S
C457        F470   1.385       .  S
C457        F471   1.382       .  S
C457        F472   1.382       .  S
C459        F467   1.383       .  S
C459        F468   1.381   1_655  S
C459        F469   1.385       .  S
C473        C474   1.402       .  A
C473        C478   1.406       .  A
C473        H483   1.084       .  S
C474        C479   1.479       .  S
C474        C475   1.414       .  A
C475        C476   1.404       .  A
C475        C480   1.520       .  S
C476        C477   1.407       .  A
C476        H481   1.083       .  S
C477        C478   1.418       .  A
C478        C482   1.517       .  S
C479        C484   1.414       .  A
C479        C488   1.398       .  A
C480        F496   1.382       .  S
C480        F497   1.381       .  S
C480        F498   1.385       .  S
C482        F493   1.383       .  S
C482        F494   1.385       .  S
C482        F495   1.383       .  S
C484        C485   1.410       .  A
C484        C489   1.518       .  S
C485        C486   1.406       .  A
C485        H490   1.083       .  S
C486        C487   1.421       .  A
C487        C488   1.402       .  A
C487        C491   1.522       .  S
C488        H492   1.084       .  S
C489        F502   1.384       .  S
C489        F503   1.382       .  S
C489        F504   1.382       .  S
C491        F499   1.382       .  S
C491        F500   1.380       .  S
C491        F501   1.385       .  S
C505        C506   1.402       .  A
C505        C510   1.405       .  A
C505        H515   1.084       .  S
C506        C511   1.485       .  S
C506        C507   1.417       .  A
C507        C508   1.407       .  A
C507        C512   1.520       .  S
C508        C509   1.405       .  A
C508        H513   1.083       .  S
C509        C510   1.417       .  A
C510        C514   1.516       .  S
C511        C516   1.416       .  A
C511        C520   1.400       .  A
C512        F528   1.382       .  S
C512        F529   1.382       .  S
C512        F530   1.385       .  S
C514        F525   1.384       .  S
C514        F526   1.382       .  S
C514        F527   1.384       .  S
C516        C517   1.412       .  A
C516        C521   1.517       .  S
C517        C518   1.404       .  A
C517        H522   1.083       .  S
C518        C519   1.417       .  A
C519        C520   1.403       .  A
C519        C523   1.516       .  S
C520        H524   1.083       .  S
C521        F534   1.384       .  S
C521        F535   1.382       .  S
C521        F536   1.383       .  S
C523        F531   1.381       .  S
C523        F532   1.382       .  S
C523        F533   1.385       .  S
C537        C538   1.402       .  A
C537        C542   1.405   1_565  A
C537        H547   1.083       .  S
C538        C543   1.487       .  S
C538        C539   1.419       .  A
C539        C540   1.409   1_565  A
C539        C544   1.518       .  S
C540        C541   1.401       .  A
C540        H545   1.083       .  S
C541        C542   1.415       .  A
C542        C546   1.519       .  S
C543        C548   1.416       .  A
C543        C552   1.398       .  A
C544        F560   1.381       .  S
C544        F561   1.382       .  S
C544        F562   1.385       .  S
C546        F557   1.385       .  S
C546        F558   1.382       .  S
C546        F559   1.383       .  S
C548        C549   1.411       .  A
C548        C553   1.518       .  S
C549        C550   1.409       .  A
C549        H554   1.083       .  S
C550        C551   1.425       .  A
C551        C552   1.402       .  A
C551        C555   1.520       .  S
C552        H556   1.084       .  S
C553        F566   1.385       .  S
C553        F567   1.382       .  S
C553        F568   1.383       .  S
C555        F563   1.383       .  S
C555        F564   1.384       .  S
C555        F565   1.385       .  S
C569        C570   1.405       .  A
C569        C574   1.410       .  A
C569        H579   1.083       .  S
C570        C575   1.491       .  S
C570        C571   1.418       .  A
C571        C572   1.408       .  A
C571        C576   1.520       .  S
C572        C573   1.404       .  A
C572        H577   1.084       .  S
C573        C574   1.415       .  A
C574        C578   1.517       .  S
C575        C580   1.416       .  A
C575        C584   1.401       .  A
C576        F592   1.382       .  S
C576        F593   1.382       .  S
C576        F594   1.385       .  S
C578        F589   1.385       .  S
C578        F590   1.382       .  S
C578        F591   1.384       .  S
C580        C581   1.412       .  A
C580        C585   1.518       .  S
C581        C582   1.408       .  A
C581        H586   1.083       .  S
C582        C583   1.424       .  A
C583        C584   1.407       .  A
C583        C587   1.522       .  S
C584        H588   1.083       .  S
C585        F598   1.385       .  S
C585        F599   1.382       .  S
C585        F600   1.382       .  S
C587        F595   1.382       .  S
C587        F596   1.384       .  S
C587        F597   1.385       .  S
C601        C602   1.398       .  A
C601        C606   1.405       .  A
C601        H611   1.083       .  S
C602        C607   1.483       .  S
C602        C603   1.412       .  A
C603        C604   1.408       .  A
C603        C608   1.519       .  S
C604        C605   1.414       .  A
C604        H609   1.082       .  S
C605        C606   1.429       .  A
C606        C610   1.523       .  S
C607        C612   1.417       .  A
C607        C616   1.400       .  A
C608        F624   1.382       .  S
C608        F625   1.381       .  S
C608        F626   1.385       .  S
C610        F621   1.385       .  S
C610        F622   1.383       .  S
C610        F623   1.383       .  S
C612        C613   1.409   1_455  A
C612        C617   1.519       .  S
C613        C614   1.404       .  A
C613        H618   1.083       .  S
C614        C615   1.419       .  A
C615        C616   1.404   1_655  A
C615        C619   1.518       .  S
C616        H620   1.083       .  S
C617        F630   1.384       .  S
C617        F631   1.382       .  S
C617        F632   1.381       .  S
C619        F627   1.381       .  S
C619        F628   1.379       .  S
C619        F629   1.385       .  S
C633        C634   1.401       .  A
C633        C638   1.407       .  A
C633        H643   1.083       .  S
C634        C639   1.489       .  S
C634        C635   1.417       .  A
C635        C636   1.409       .  A
C635        C640   1.519       .  S
C636        C637   1.405       .  A
C636        H641   1.083       .  S
C637        C638   1.421       .  A
C638        C642   1.520       .  S
C639        C644   1.418       .  A
C639        C648   1.400       .  A
C640        F656   1.382       .  S
C640        F657   1.382       .  S
C640        F658   1.385       .  S
C642        F653   1.385       .  S
C642        F654   1.382       .  S
C642        F655   1.383       .  S
C644        C645   1.413   1_655  A
C644        C649   1.516       .  S
C645        C646   1.403       .  A
C645        H650   1.083       .  S
C646        C647   1.418       .  A
C647        C648   1.405   1_455  A
C647        C651   1.516       .  S
C648        H652   1.083       .  S
C649        F662   1.385       .  S
C649        F663   1.382       .  S
C649        F664   1.382       .  S
C651        F659   1.382       .  S
C651        F660   1.378       .  S
C651        F661   1.384       .  S
C665        C666   1.401       .  A
C665        C670   1.408       .  A
C665        H675   1.083       .  S
C666        C671   1.494       .  S
C666        C667   1.417       .  A
C667        C668   1.414       .  A
C667        C672   1.518       .  S
C668        C669   1.407       .  A
C668        H673   1.083       .  S
C669        C670   1.423       .  A
C670        C674   1.521       .  S
C671        C676   1.418       .  A
C671        C680   1.401       .  A
C672        F688   1.382       .  S
C672        F689   1.381       .  S
C672        F690   1.385       .  S
C674        F685   1.385       .  S
C674        F686   1.382       .  S
C674        F687   1.382       .  S
C676        C677   1.412       .  A
C676        C681   1.519       .  S
C677        C678   1.408       .  A
C677        H682   1.083       .  S
C678        C679   1.421       .  A
C679        C680   1.409       .  A
C679        C683   1.513       .  S
C680        H684   1.083       .  S
C681        F694   1.385       .  S
C681        F695   1.382       .  S
C681        F696   1.381       .  S
C683        F691   1.382       .  S
C683        F692   1.384       .  S
C683        F693   1.385       .  S
C697        C698   1.402       .  A
C697        C702   1.413       .  A
C697        H707   1.083       .  S
C698        C703   1.494       .  S
C698        C699   1.415       .  A
C699        C700   1.409       .  A
C699        C704   1.518       .  S
C700        C701   1.408       .  A
C700        H705   1.083       .  S
C701        C702   1.425       .  A
C702        C706   1.520       .  S
C703        C708   1.417       .  A
C703        C712   1.404       .  A
C704        F720   1.382       .  S
C704        F721   1.382       .  S
C704        F722   1.385       .  S
C706        F717   1.382       .  S
C706        F718   1.385       .  S
C706        F719   1.382       .  S
C708        C709   1.408       .  A
C708        C713   1.521       .  S
C709        C710   1.405       .  A
C709        H714   1.083       .  S
C710        C711   1.423       .  A
C711        C712   1.416       .  A
C711        C715   1.518       .  S
C712        H716   1.083       .  S
C713        F726   1.384       .  S
C713        F727   1.382       .  S
C713        F728   1.382       .  S
C715        F723   1.385       .  S
C715        F724   1.382       .  S
C715        F725   1.383       .  S
C729        C730   1.406       .  A
C729        C734   1.412   1_545  A
C729        H739   1.083       .  S
C730        C735   1.492       .  S
C730        C731   1.419   1_545  A
C731        C732   1.406       .  A
C731        C736   1.520   1_565  S
C732        C733   1.401       .  A
C732        H737   1.084       .  S
C733        C734   1.415       .  A
C734        C738   1.516       .  S
C735        C740   1.414       .  A
C735        C744   1.403       .  A
C736        F752   1.382       .  S
C736        F753   1.382       .  S
C736        F754   1.385   1_545  S
C738        F749   1.384       .  S
C738        F750   1.382       .  S
C738        F751   1.383       .  S
C740        C741   1.406       .  A
C740        C745   1.520       .  S
C741        C742   1.409       .  A
C741        H746   1.083       .  S
C742        C743   1.426       .  A
C743        C744   1.414       .  A
C743        C747   1.519       .  S
C744        H748   1.083       .  S
C745        F758   1.384       .  S
C745        F759   1.382       .  S
C745        F760   1.383       .  S
C747        F755   1.380       .  S
C747        F756   1.381       .  S
C747        F757   1.385       .  S
C761        C762   1.404       .  A
C761        C766   1.410       .  A
C761        H771   1.082       .  S
C762        C767   1.490   1_556  S
C762        C763   1.419       .  A
C763        C764   1.406       .  A
C763        C768   1.519       .  S
C764        C765   1.401       .  A
C764        H769   1.084       .  S
C765        C766   1.417       .  A
C766        C770   1.518       .  S
C767        C772   1.418       .  A
C767        C776   1.401       .  A
C768        F784   1.381       .  S
C768        F785   1.383       .  S
C768        F786   1.385       .  S
C770        F781   1.383       .  S
C770        F782   1.385       .  S
C770        F783   1.383       .  S
C772        C773   1.412       .  A
C772        C777   1.519   1_554  S
C773        C774   1.404       .  A
C773        H778   1.083       .  S
C774        C775   1.417       .  A
C775        C776   1.406       .  A
C775        C779   1.515       .  S
C776        H780   1.083       .  S
C777        F790   1.384   1_556  S
C777        F791   1.382       .  S
C777        F792   1.382       .  S
C779        F787   1.385       .  S
C779        F788   1.382       .  S
C779        F789   1.378       .  S
C793        C794   1.403       .  A
C793        C798   1.406       .  A
C793        H803   1.084       .  S
C794        C799   1.487       .  S
C794        C795   1.417       .  A
C795        C796   1.410       .  A
C795        C800   1.519       .  S
C796        C797   1.404       .  A
C796        H801   1.083       .  S
C797        C798   1.418       .  A
C798        C802   1.519       .  S
C799        C804   1.417       .  A
C799        C808   1.401       .  A
C800        F816   1.381       .  S
C800        F817   1.381       .  S
C800        F818   1.385       .  S
C802        F813   1.384       .  S
C802        F814   1.385       .  S
C802        F815   1.382       .  S
C804        C805   1.412       .  A
C804        C809   1.518       .  S
C805        C806   1.406       .  A
C805        H810   1.083       .  S
C806        C807   1.419       .  A
C807        C808   1.403       .  A
C807        C811   1.519       .  S
C808        H812   1.084       .  S
C809        F822   1.384       .  S
C809        F823   1.382       .  S
C809        F824   1.381       .  S
C811        F819   1.383       .  S
C811        F820   1.384       .  S
C811        F821   1.385       .  S
C825        C826   1.403       .  A
C825        C830   1.407       .  A
C825        H835   1.083       .  S
C826        C831   1.488   1_455  S
C826        C827   1.419   1_455  A
C827        C828   1.410   1_655  A
C827        C832   1.520       .  S
C828        C829   1.404       .  A
C828        H833   1.083   1_455  S
C829        C830   1.415       .  A
C830        C834   1.517       .  S
C831        C836   1.413       .  A
C831        C840   1.399       .  A
C832        F848   1.382       .  S
C832        F849   1.381       .  S
C832        F850   1.385       .  S
C834        F845   1.383       .  S
C834        F846   1.385       .  S
C834        F847   1.382       .  S
C836        C837   1.409       .  A
C836        C841   1.519       .  S
C837        C838   1.410       .  A
C837        H842   1.082       .  S
C838        C839   1.428       .  A
C839        C840   1.408       .  A
C839        C843   1.519       .  S
C840        H844   1.083       .  S
C841        F854   1.385       .  S
C841        F855   1.382   1_655  S
C841        F856   1.381       .  S
C843        F851   1.385       .  S
C843        F852   1.382       .  S
C843        F853   1.382       .  S
C857        C858   1.402       .  A
C857        C862   1.409       .  A
C857        H867   1.085       .  S
C858        C863   1.492       .  S
C858        C859   1.416       .  A
C859        C860   1.409       .  A
C859        C864   1.519       .  S
C860        C861   1.404       .  A
C860        H865   1.083       .  S
C861        C862   1.423       .  A
C862        C866   1.521       .  S
C863        C868   1.417       .  A
C863        C872   1.406       .  A
C864        F880   1.383       .  S
C864        F881   1.383       .  S
C864        F882   1.384       .  S
C866        F877   1.384       .  S
C866        F878   1.383       .  S
C866        F879   1.380       .  S
C868        C869   1.403       .  A
C868        C873   1.522       .  S
C869        C870   1.406       .  A
C869        H874   1.083       .  S
C870        C871   1.420       .  A
C871        C872   1.416       .  A
C871        C875   1.517       .  S
C872        H876   1.083       .  S
C873        F886   1.384       .  S
C873        F887   1.382       .  S
C873        F888   1.383       .  S
C875        F883   1.383       .  S
C875        F884   1.383       .  S
C875        F885   1.384       .  S
C889        C890   1.401       .  A
C889        C894   1.410       .  A
C889        H899   1.083       .  S
C890        C895   1.481       .  S
C890        C891   1.413       .  A
C891        C892   1.401       .  A
C891        C896   1.521       .  S
C892        C893   1.407       .  A
C892        H897   1.083       .  S
C893        C894   1.423       .  A
C894        C898   1.518       .  S
C895        C900   1.415       .  A
C895        C904   1.400       .  A
C896        F912   1.382       .  S
C896        F913   1.382       .  S
C896        F914   1.385       .  S
C898        F909   1.383       .  S
C898        F910   1.385       .  S
C898        F911   1.383       .  S
C900        C901   1.404       .  A
C900        C905   1.520       .  S
C901        C902   1.405       .  A
C901        H906   1.083       .  S
C902        C903   1.421       .  A
C903        C904   1.408       .  A
C903        C907   1.518       .  S
C904        H908   1.083       .  S
C905        F918   1.385       .  S
C905        F919   1.382       .  S
C905        F920   1.382       .  S
C907        F915   1.385       .  S
C907        F916   1.382       .  S
C907        F917   1.383       .  S
C921        C922   1.401       .  A
C921        C926   1.408       .  A
C921        H931   1.084       .  S
C922        C927   1.484       .  S
C922        C923   1.414       .  A
C923        C924   1.407       .  A
C923        C928   1.520       .  S
C924        C925   1.408       .  A
C924        H929   1.082       .  S
C925        C926   1.424       .  A
C926        C930   1.519       .  S
C927        C932   1.416       .  A
C927        C936   1.401       .  A
C928        F944   1.382       .  S
C928        F945   1.381       .  S
C928        F946   1.383       .  S
C930        F941   1.385       .  S
C930        F942   1.383       .  S
C930        F943   1.384       .  S
C932        C933   1.410       .  A
C932        C937   1.518       .  S
C933        C934   1.403       .  A
C933        H938   1.083       .  S
C934        C935   1.417       .  A
C935        C936   1.405       .  A
C935        C939   1.517       .  S
C936        H940   1.083       .  S
C937        F950   1.384       .  S
C937        F951   1.382       .  S
C937        F952   1.382       .  S
C939        F947   1.382       .  S
C939        F948   1.379       .  S
C939        F949   1.385       .  S
C953        C954   1.399       .  A
C953        C958   1.409       .  A
C953        H963   1.083       .  S
C954        C959   1.482       .  S
C954        C955   1.412       .  A
C955        C956   1.405       .  A
C955        C960   1.521       .  S
C956        C957   1.410       .  A
C956        H961   1.083       .  S
C957        C958   1.427       .  A
C958        C962   1.520       .  S
C959        C964   1.417       .  A
C959        C968   1.403       .  A
C960        F976   1.382       .  S
C960        F977   1.383       .  S
C960        F978   1.384       .  S
C962        F973   1.385       .  S
C962        F974   1.383       .  S
C962        F975   1.383   1_455  S
C964        C965   1.404       .  A
C964        C969   1.520       .  S
C965        C966   1.400       .  A
C965        H970   1.084       .  S
C966        C967   1.414       .  A
C967        C968   1.408       .  A
C967        C971   1.515       .  S
C968        H972   1.083       .  S
C969        F982   1.384       .  S
C969        F983   1.382       .  S
C969        F984   1.382       .  S
C971        F979   1.382       .  S
C971        F980   1.383       .  S
C971        F981   1.385       .  S
C985        C986   1.399       .  A
C985        C990   1.409       .  A
C985        H995   1.083       .  S
C986        C991   1.484   1_565  S
C986        C987   1.412       .  A
C987        C988   1.406       .  A
C987        C992   1.520       .  S
C988        C989   1.410       .  A
C988        H993   1.082       .  S
C989        C990   1.430       .  A
C990        C994   1.523       .  S
C991        C996   1.415       .  A
C991       C1000   1.403       .  A
C992       F1008   1.383   1_565  S
C992       F1009   1.382       .  S
C992       F1010   1.384       .  S
C994       F1005   1.383       .  S
C994       F1006   1.385       .  S
C994       F1007   1.384       .  S
C996        C997   1.405       .  A
C996       C1001   1.520   1_545  S
C997        C998   1.404       .  A
C997       H1002   1.083       .  S
C998        C999   1.417       .  A
C999       C1000   1.408       .  A
C999       C1003   1.518       .  S
C1000      H1004   1.083       .  S
C1001      F1014   1.385       .  S
C1001      F1015   1.382       .  S
C1001      F1016   1.381       .  S
C1003      F1011   1.382       .  S
C1003      F1012   1.383       .  S
C1003      F1013   1.385       .  S
C1017      C1018   1.400       .  A
C1017      C1022   1.414       .  A
C1017      H1027   1.083       .  S
C1018      C1023   1.490       .  S
C1018      C1019   1.412       .  A
C1019      C1020   1.406       .  A
C1019      C1024   1.522       .  S
C1020      C1021   1.414       .  A
C1020      H1025   1.081       .  S
C1021      C1022   1.430       .  A
C1022      C1026   1.517       .  S
C1023      C1028   1.417       .  A
C1023      C1032   1.403       .  A
C1024      F1040   1.382       .  S
C1024      F1041   1.383       .  S
C1024      F1042   1.384       .  S
C1026      F1037   1.385       .  S
C1026      F1038   1.383       .  S
C1026      F1039   1.380   1_545  S
C1028      C1029   1.408       .  A
C1028      C1033   1.520       .  S
C1029      C1030   1.405       .  A
C1029      H1034   1.083       .  S
C1030      C1031   1.419       .  A
C1031      C1032   1.409       .  A
C1031      C1035   1.518       .  S
C1032      H1036   1.083       .  S
C1033      F1046   1.384       .  S
C1033      F1047   1.382       .  S
C1033      F1048   1.382       .  S
C1035      F1043   1.384       .  S
C1035      F1044   1.383       .  S
C1035      F1045   1.384       .  S
C1049      C1050   1.403       .  A
C1049      C1054   1.410       .  A
C1049      H1059   1.083       .  S
C1050      C1055   1.492       .  S
C1050      C1051   1.418       .  A
C1051      C1052   1.409       .  A
C1051      C1056   1.519       .  S
C1052      C1053   1.405       .  A
C1052      H1057   1.083       .  S
C1053      C1054   1.421       .  A
C1054      C1058   1.518       .  S
C1055      C1060   1.417       .  A
C1055      C1064   1.401       .  A
C1056      F1072   1.382       .  S
C1056      F1073   1.382       .  S
C1056      F1074   1.385       .  S
C1058      F1069   1.385       .  S
C1058      F1070   1.382       .  S
C1058      F1071   1.384       .  S
C1060      C1061   1.414       .  A
C1060      C1065   1.517       .  S
C1061      C1062   1.406       .  A
C1061      H1066   1.083       .  S
C1062      C1063   1.420       .  A
C1063      C1064   1.406       .  A
C1063      C1067   1.520       .  S
C1064      H1068   1.083       .  S
C1065      F1078   1.385       .  S
C1065      F1079   1.382       .  S
C1065      F1080   1.382       .  S
C1067      F1075   1.382       .  S
C1067      F1076   1.381       .  S
C1067      F1077   1.385       .  S
C1081      C1082   1.402       .  A
C1081      C1086   1.405       .  A
C1081      H1091   1.084       .  S
C1082      C1087   1.485       .  S
C1082      C1083   1.414       .  A
C1083      C1084   1.408       .  A
C1083      C1088   1.519       .  S
C1084      C1085   1.407       .  A
C1084      H1089   1.082       .  S
C1085      C1086   1.422       .  A
C1086      C1090   1.521       .  S
C1087      C1092   1.417       .  A
C1087      C1096   1.403       .  A
C1088      F1104   1.381       .  S
C1088      F1105   1.381       .  S
C1088      F1106   1.384       .  S
C1090      F1101   1.384       .  S
C1090      F1102   1.385       .  S
C1090      F1103   1.382       .  S
C1092      C1093   1.409       .  A
C1092      C1097   1.519       .  S
C1093      C1094   1.403       .  A
C1093      H1098   1.083       .  S
C1094      C1095   1.414       .  A
C1095      C1096   1.404       .  A
C1095      C1099   1.519       .  S
C1096      H1100   1.083       .  S
C1097      F1110   1.385       .  S
C1097      F1111   1.381       .  S
C1097      F1112   1.381       .  S
C1099      F1107   1.382       .  S
C1099      F1108   1.383       .  S
C1099      F1109   1.385       .  S
C1113      C1114   1.403       .  A
C1113      C1118   1.414       .  A
C1113      H1123   1.083       .  S
C1114      C1119   1.487       .  S
C1114      C1115   1.414       .  A
C1115      C1116   1.403       .  A
C1115      C1120   1.521       .  S
C1116      C1117   1.408       .  A
C1116      H1121   1.083       .  S
C1117      C1118   1.422       .  A
C1118      C1122   1.516       .  S
C1119      C1124   1.415       .  A
C1119      C1128   1.402       .  A
C1120      F1136   1.382       .  S
C1120      F1137   1.382       .  S
C1120      F1138   1.385       .  S
C1122      F1133   1.383       .  S
C1122      F1134   1.385       .  S
C1122      F1135   1.383       .  S
C1124      C1125   1.406       .  A
C1124      C1129   1.519       .  S
C1125      C1126   1.405       .  A
C1125      H1130   1.083       .  S
C1126      C1127   1.419       .  A
C1127      C1128   1.411       .  A
C1127      C1131   1.513       .  S
C1128      H1132   1.083       .  S
C1129      F1142   1.385       .  S
C1129      F1143   1.382       .  S
C1129      F1144   1.382       .  S
C1131      F1139   1.385       .  S
C1131      F1140   1.383       .  S
C1131      F1141   1.383       .  S
C1145      C1146   1.401       .  A
C1145      C1150   1.402       .  A
C1145      H1155   1.083       .  S
C1146      C1151   1.487       .  S
C1146      C1147   1.418       .  A
C1147      C1148   1.413       .  A
C1147      C1152   1.518       .  S
C1148      C1149   1.403       .  A
C1148      H1153   1.083       .  S
C1149      C1150   1.414       .  A
C1150      C1154   1.515       .  S
C1151      C1156   1.416       .  A
C1151      C1160   1.401       .  A
C1152      F1168   1.382       .  S
C1152      F1169   1.382       .  S
C1152      F1170   1.384       .  S
C1154      F1165   1.384       .  S
C1154      F1166   1.382       .  S
C1154      F1167   1.382       .  S
C1156      C1157   1.408       .  A
C1156      C1161   1.521       .  S
C1157      C1158   1.408       .  A
C1157      H1162   1.082       .  S
C1158      C1159   1.425       .  A
C1159      C1160   1.407       .  A
C1159      C1163   1.521       .  S
C1160      H1164   1.083       .  S
C1161      F1174   1.384       .  S
C1161      F1175   1.381       .  S
C1161      F1176   1.381       .  S
C1163      F1171   1.383       .  S
C1163      F1172   1.383       .  S
C1163      F1173   1.385       .  S
C1177      C1178   1.399       .  A
C1177      C1182   1.405   1_455  A
C1177      H1187   1.083       .  S
C1178      C1183   1.488       .  S
C1178      C1179   1.415       .  A
C1179      C1180   1.412   1_455  A
C1179      C1184   1.517       .  S
C1180      C1181   1.408       .  A
C1180      H1185   1.083       .  S
C1181      C1182   1.424       .  A
C1182      C1186   1.522       .  S
C1183      C1188   1.418       .  A
C1183      C1192   1.404       .  A
C1184      F1200   1.382       .  S
C1184      F1201   1.382       .  S
C1184      F1202   1.385       .  S
C1186      F1197   1.385       .  S
C1186      F1198   1.383       .  S
C1186      F1199   1.383       .  S
C1188      C1189   1.407       .  A
C1188      C1193   1.521       .  S
C1189      C1190   1.402       .  A
C1189      H1194   1.084   1_565  S
C1190      C1191   1.415       .  A
C1191      C1192   1.410       .  A
C1191      C1195   1.516       .  S
C1192      H1196   1.083       .  S
C1193      F1206   1.384       .  S
C1193      F1207   1.382       .  S
C1193      F1208   1.382       .  S
C1195      F1203   1.382       .  S
C1195      F1204   1.383       .  S
C1195      F1205   1.385       .  S
C1209      C1210   1.401       .  A
C1209      C1214   1.407       .  A
C1209      H1219   1.084       .  S
C1210      C1215   1.487       .  S
C1210      C1211   1.416       .  A
C1211      C1212   1.409       .  A
C1211      C1216   1.520       .  S
C1212      C1213   1.407       .  A
C1212      H1217   1.083       .  S
C1213      C1214   1.419       .  A
C1214      C1218   1.513       .  S
C1215      C1220   1.416       .  A
C1215      C1224   1.400       .  A
C1216      F1232   1.382       .  S
C1216      F1233   1.381       .  S
C1216      F1234   1.384       .  S
C1218      F1229   1.385       .  S
C1218      F1230   1.382       .  S
C1218      F1231   1.383       .  S
C1220      C1221   1.413       .  A
C1220      C1225   1.517       .  S
C1221      C1222   1.405       .  A
C1221      H1226   1.083       .  S
C1222      C1223   1.420       .  A
C1223      C1224   1.404       .  A
C1223      C1227   1.520       .  S
C1224      H1228   1.084       .  S
C1225      F1238   1.384       .  S
C1225      F1239   1.382       .  S
C1225      F1240   1.382       .  S
C1227      F1235   1.382       .  S
C1227      F1236   1.381       .  S
C1227      F1237   1.385       .  S
C1241      C1242   1.400       .  A
C1241      C1246   1.410       .  A
C1241      H1251   1.083       .  S
C1242      C1247   1.488       .  S
C1242      C1243   1.414       .  A
C1243      C1244   1.408       .  A
C1243      C1248   1.519       .  S
C1244      C1245   1.406       .  A
C1244      H1249   1.083       .  S
C1245      C1246   1.424       .  A
C1246      C1250   1.519       .  S
C1247      C1252   1.418       .  A
C1247      C1256   1.405       .  A
C1248      F1264   1.383       .  S
C1248      F1265   1.382       .  S
C1248      F1266   1.384       .  S
C1250      F1261   1.385       .  S
C1250      F1262   1.381       .  S
C1250      F1263   1.383       .  S
C1252      C1253   1.405   1_565  A
C1252      C1257   1.522       .  S
C1253      C1254   1.402       .  A
C1253      H1258   1.084       .  S
C1254      C1255   1.414       .  A
C1255      C1256   1.412   1_545  A
C1255      C1259   1.515       .  S
C1256      H1260   1.083       .  S
C1257      F1270   1.385   1_565  S
C1257      F1271   1.382       .  S
C1257      F1272   1.382       .  S
C1259      F1267   1.384       .  S
C1259      F1268   1.382       .  S
C1259      F1269   1.384       .  S
C1273      C1274   1.402       .  A
C1273      C1278   1.404       .  A
C1273      H1283   1.084       .  S
C1274      C1279   1.484       .  S
C1274      C1275   1.416       .  A
C1275      C1276   1.410       .  A
C1275      C1280   1.519       .  S
C1276      C1277   1.406       .  A
C1276      H1281   1.083       .  S
C1277      C1278   1.417       .  A
C1278      C1282   1.519       .  S
C1279      C1284   1.416       .  A
C1279      C1288   1.402       .  A
C1280      F1296   1.382       .  S
C1280      F1297   1.381       .  S
C1280      F1298   1.385       .  S
C1282      F1293   1.385       .  S
C1282      F1294   1.382       .  S
C1282      F1295   1.383       .  S
C1284      C1285   1.409       .  A
C1284      C1289   1.518       .  S
C1285      C1286   1.406       .  A
C1285      H1290   1.083       .  S
C1286      C1287   1.420       .  A
C1287      C1288   1.404       .  A
C1287      C1291   1.520       .  S
C1288      H1292   1.084       .  S
C1289      F1302   1.385       .  S
C1289      F1303   1.382       .  S
C1289      F1304   1.381       .  S
C1291      F1299   1.383       .  S
C1291      F1300   1.384       .  S
C1291      F1301   1.385       .  S
C1305      C1306   1.400       .  A
C1305      C1310   1.403       .  A
C1305      H1315   1.085       .  S
C1306      C1311   1.485       .  S
C1306      C1307   1.417       .  A
C1307      C1308   1.409       .  A
C1307      C1312   1.519       .  S
C1308      C1309   1.402       .  A
C1308      H1313   1.083       .  S
C1309      C1310   1.419       .  A
C1310      C1314   1.520       .  S
C1311      C1316   1.417       .  A
C1311      C1320   1.402       .  A
C1312      F1328   1.382       .  S
C1312      F1329   1.383       .  S
C1312      F1330   1.385       .  S
C1314      F1325   1.384       .  S
C1314      F1326   1.383       .  S
C1314      F1327   1.381       .  S
C1316      C1317   1.406       .  A
C1316      C1321   1.520       .  S
C1317      C1318   1.403       .  A
C1317      H1322   1.083       .  S
C1318      C1319   1.418       .  A
C1319      C1320   1.407       .  A
C1319      C1323   1.519       .  S
C1320      H1324   1.083       .  S
C1321      F1334   1.385       .  S
C1321      F1335   1.382       .  S
C1321      F1336   1.382       .  S
C1323      F1331   1.385       .  S
C1323      F1332   1.383       .  S
C1323      F1333   1.381       .  S
C1337      C1338   1.403   1_565  A
C1337      C1342   1.405       .  A
C1337      H1347   1.083   1_565  S
C1338      C1343   1.488       .  S
C1338      C1339   1.419       .  A
C1339      C1340   1.410   1_545  A
C1339      C1344   1.519       .  S
C1340      C1341   1.402       .  A
C1340      H1345   1.083       .  S
C1341      C1342   1.415       .  A
C1342      C1346   1.518       .  S
C1343      C1348   1.417       .  A
C1343      C1352   1.402       .  A
C1344      F1360   1.381       .  S
C1344      F1361   1.382       .  S
C1344      F1362   1.385       .  S
C1346      F1357   1.385       .  S
C1346      F1358   1.382       .  S
C1346      F1359   1.382       .  S
C1348      C1349   1.409       .  A
C1348      C1353   1.519       .  S
C1349      C1350   1.406       .  A
C1349      H1354   1.083       .  S
C1350      C1351   1.420       .  A
C1351      C1352   1.405       .  A
C1351      C1355   1.520       .  S
C1352      H1356   1.084       .  S
C1353      F1366   1.385       .  S
C1353      F1367   1.381       .  S
C1353      F1368   1.382       .  S
C1355      F1363   1.382       .  S
C1355      F1364   1.384       .  S
C1355      F1365   1.385       .  S
C1369      C1370   1.403       .  A
C1369      C1374   1.409       .  A
C1369      H1379   1.083       .  S
C1370      C1375   1.487       .  S
C1370      C1371   1.418       .  A
C1371      C1372   1.407       .  A
C1371      C1376   1.521       .  S
C1372      C1373   1.404       .  A
C1372      H1377   1.083       .  S
C1373      C1374   1.418       .  A
C1374      C1378   1.518       .  S
C1375      C1380   1.415       .  A
C1375      C1384   1.399       .  A
C1376      F1392   1.382       .  S
C1376      F1393   1.381       .  S
C1376      F1394   1.385       .  S
C1378      F1389   1.385       .  S
C1378      F1390   1.382       .  S
C1378      F1391   1.384       .  S
C1380      C1381   1.411       .  A
C1380      C1385   1.518       .  S
C1381      C1382   1.409       .  A
C1381      H1386   1.083       .  S
C1382      C1383   1.424       .  A
C1383      C1384   1.405       .  A
C1383      C1387   1.522       .  S
C1384      H1388   1.083       .  S
C1385      F1398   1.385       .  S
C1385      F1399   1.382       .  S
C1385      F1400   1.382       .  S
C1387      F1395   1.383       .  S
C1387      F1396   1.383       .  S
C1387      F1397   1.385       .  S
C1401      C1402   1.402       .  A
C1401      C1406   1.404   1_655  A
C1401      H1411   1.083       .  S
C1402      C1407   1.488       .  S
C1402      C1403   1.418       .  A
C1403      C1404   1.412   1_655  A
C1403      C1408   1.518       .  S
C1404      C1405   1.403       .  A
C1404      H1409   1.083       .  S
C1405      C1406   1.414       .  A
C1406      C1410   1.517       .  S
C1407      C1412   1.417       .  A
C1407      C1416   1.403       .  A
C1408      F1424   1.382       .  S
C1408      F1425   1.382       .  S
C1408      F1426   1.385       .  S
C1410      F1421   1.385       .  S
C1410      F1422   1.382       .  S
C1410      F1423   1.383       .  S
C1412      C1413   1.409       .  A
C1412      C1417   1.520       .  S
C1413      C1414   1.407       .  A
C1413      H1418   1.083       .  S
C1414      C1415   1.420       .  A
C1415      C1416   1.407       .  A
C1415      C1419   1.519       .  S
C1416      H1420   1.083       .  S
C1417      F1430   1.385       .  S
C1417      F1431   1.381       .  S
C1417      F1432   1.382       .  S
C1419      F1427   1.382       .  S
C1419      F1428   1.384       .  S
C1419      F1429   1.385       .  S
C1433      C1434   1.401       .  A
C1433      C1438   1.411       .  A
C1433      H1443   1.083       .  S
C1434      C1439   1.490       .  S
C1434      C1435   1.413       .  A
C1435      C1436   1.408       .  A
C1435      C1440   1.518       .  S
C1436      C1437   1.409       .  A
C1436      H1441   1.083       .  S
C1437      C1438   1.425       .  A
C1438      C1442   1.519       .  S
C1439      C1444   1.417       .  A
C1439      C1448   1.404       .  A
C1440      F1456   1.383       .  S
C1440      F1457   1.382       .  S
C1440      F1458   1.385       .  S
C1442      F1453   1.385       .  S
C1442      F1454   1.383       .  S
C1442      F1455   1.383       .  S
C1444      C1445   1.406       .  A
C1444      C1449   1.521       .  S
C1445      C1446   1.405       .  A
C1445      H1450   1.083       .  S
C1446      C1447   1.418       .  A
C1447      C1448   1.413       .  A
C1447      C1451   1.517       .  S
C1448      H1452   1.083       .  S
C1449      F1462   1.385       .  S
C1449      F1463   1.382       .  S
C1449      F1464   1.382       .  S
C1451      F1459   1.383       .  S
C1451      F1460   1.383       .  S
C1451      F1461   1.384       .  S
