geometry optimzed in LAMMPS
_audit_creation_date              2020-12-01 
_audit_creation_method            'lammps2cif' 
_symmetry_space_group_name_H-M    'P1' 
_symmetry_Int_Tables_number       1 
_symmetry_cell_setting            triclinic 
loop_ 
_symmetry_equiv_pos_as_xyz 
  x,y,z 
_cell_length_a                    105.02080751 
_cell_length_b                    105.55205224161074 
_cell_length_c                    105.34233827334127 
_cell_angle_alpha                 89.91265904018971 
_cell_angle_beta                  90.24612513696034 
_cell_angle_gamma                 90.23590197140078 
loop_ 
_atom_site_label 
_atom_site_type_symbol 
_atom_site_fract_x 
_atom_site_fract_y 
_atom_site_fract_z 
_atom_site_charge 
In1        In  0.42977181  0.93314953  0.67908987     1.36900
C2          C  0.45347067  0.92614810  0.67292471     0.78200
O3          O  0.41952115  0.95074334  0.67283368    -0.60200
O4          O  0.43843147  0.95268361  0.67967063    -0.51100
C5          C  0.41224658  0.92094029  0.66516881     0.70900
O6          O  0.42022274  0.92856496  0.66058734    -0.46000
C7          C  0.42417401  0.93123680  0.70366632     0.75600
O8          O  0.44955232  0.92627800  0.68419562    -0.57900
O9          O  0.42125258  0.94068235  0.69694990    -0.48000
O10         O  0.44512102  0.92889230  0.66480893    -0.54300
C11         C  0.42871056  0.95806520  0.67517370     0.85800
O12         O  0.41377012  0.91874414  0.67683355    -0.56200
O13         O  0.42958397  0.92237354  0.69770754    -0.59500
In14       In  0.43437364  0.08165541  0.67436818     1.36900
C15         C  0.42758640  0.09081071  0.69689431     0.78200
O16         O  0.44314421  0.06452297  0.68331715    -0.60200
O17         O  0.42911318  0.06149803  0.66911672    -0.51100
C18         C  0.41852840  0.09033351  0.65635305     0.70900
O19         O  0.41475836  0.08361793  0.66551026    -0.46000
C20         C  0.45845756  0.08606901  0.66826628     0.75600
O21         O  0.42488701  0.07976022  0.69326257    -0.57900
O22         O  0.45110898  0.07941070  0.66151535    -0.48000
O23         O  0.43300772  0.09758402  0.68863606    -0.54300
C24         C  0.43691163  0.05663836  0.67685078     0.85800
O25         O  0.43018742  0.09305333  0.65674324    -0.56200
O26         O  0.45330098  0.09108610  0.67781777    -0.59500
In27       In  0.57712231  0.93161786  0.67453121     1.36900
C28         C  0.58127954  0.92608609  0.69887463     0.78200
O29         O  0.59125233  0.94753363  0.67576976    -0.60200
O30         O  0.57191479  0.95204875  0.67190939    -0.51100
C31         C  0.59008109  0.92359501  0.65426853     0.70900
O32         O  0.59452143  0.92296381  0.66538587    -0.46000
C33         C  0.55304783  0.92361922  0.67326008     0.75600
O34         O  0.58373950  0.91838885  0.69006693    -0.57900
O35         O  0.55641128  0.93474905  0.67040935    -0.48000
O36         O  0.57693114  0.93657108  0.69518372    -0.54300
C37         C  0.58312153  0.95604490  0.67372321     0.85800
O38         O  0.57884516  0.92764040  0.65363038    -0.56200
O39         O  0.56209703  0.91635235  0.67619620    -0.59500
In40       In  0.58142033  0.07937714  0.67932674     1.36900
C41         C  0.55746339  0.08743389  0.67816845     0.78200
O42         O  0.57627736  0.06337935  0.66636531    -0.60200
O43         O  0.58769241  0.05928536  0.68254327    -0.51100
C44         C  0.59725870  0.08929074  0.66205569     0.70900
O45         O  0.58564092  0.09212081  0.66259245    -0.46000
C46         C  0.58630023  0.08305560  0.70398470     0.75600
O47         O  0.56657404  0.09476546  0.68092553    -0.57900
O48         O  0.57908055  0.07441463  0.69989219    -0.48000
O49         O  0.56067690  0.07617852  0.67599185    -0.54300
C50         C  0.58188806  0.05509591  0.67289600     0.85800
O51         O  0.60090661  0.08184744  0.67069070    -0.56200
O52         O  0.59133290  0.08974395  0.69541932    -0.59500
In53       In  0.57490006  0.93251126  0.82205459     1.36900
C54         C  0.58274805  0.92980634  0.79815560     0.78200
O55         O  0.55534043  0.94025756  0.82582531    -0.60200
O56         O  0.55689960  0.92087063  0.82102370    -0.51100
C57         C  0.58415105  0.91534333  0.83845417     0.70900
O58         O  0.58684605  0.91526938  0.82680177    -0.46000
C59         C  0.58124127  0.95645963  0.82715212     0.75600
O60         O  0.59011384  0.93335206  0.80696729    -0.57900
O61         O  0.58410843  0.94741533  0.83444381    -0.48000
O62         O  0.57161343  0.92708289  0.80170001    -0.54300
C63         C  0.54968595  0.92989724  0.82391627     0.85800
O64         O  0.57726960  0.92449553  0.84176520    -0.56200
O65         O  0.57538615  0.95321442  0.81721105    -0.59500
In66       In  0.57058941  0.07901416  0.82732922     1.36900
C67         C  0.57977128  0.05547664  0.82659720     0.78200
O68         O  0.55088049  0.08684007  0.82589090    -0.60200
O69         O  0.55374686  0.07094098  0.83792134    -0.51100
C70         C  0.58046670  0.09492863  0.84489240     0.70900
O71         O  0.58274024  0.08325512  0.84469224    -0.46000
C72         C  0.57152383  0.08302767  0.80225811     0.75600
O73         O  0.58565719  0.06479771  0.82191607    -0.57900
O74         O  0.56176240  0.07928964  0.80803399    -0.48000
O75         O  0.56952582  0.05829279  0.83209305    -0.54300
C76         C  0.54595720  0.07873196  0.83321112     0.85800
O77         O  0.57386005  0.09867681  0.83563959    -0.56200
O78         O  0.58097468  0.08536596  0.80937013    -0.59500
In79       In  0.42593222  0.94202314  0.82537946     1.36900
C80         C  0.41601244  0.96463255  0.83056427     0.78200
O81         O  0.44570455  0.93407511  0.82647508    -0.60200
O82         O  0.44366037  0.95398897  0.82770391    -0.51100
C83         C  0.41726195  0.92379028  0.84080759     0.70900
O84         O  0.42591760  0.93145969  0.84396604    -0.46000
C85         C  0.42138439  0.93569786  0.80126390     0.75600
O86         O  0.41947958  0.96141167  0.81960876    -0.57900
O87         O  0.43216820  0.93453105  0.80643285    -0.48000
O88         O  0.41705663  0.95606749  0.83884622    -0.54300
C89         C  0.45112108  0.94468925  0.82767504     0.85800
O90         O  0.41267103  0.92572062  0.82992404    -0.56200
O91         O  0.41284020  0.93986010  0.80850524    -0.59500
In92       In  0.42210592  0.08655284  0.82057186     1.36900
C93         C  0.41732567  0.08890921  0.79566115     0.78200
O94         O  0.43989329  0.09824207  0.81847440    -0.60200
O95         O  0.44168856  0.07939119  0.82534434    -0.51100
C96         C  0.41360538  0.10345203  0.83766906     0.70900
O97         O  0.41281817  0.10505286  0.82587834    -0.46000
C98         C  0.41349699  0.06291941  0.82397135     0.75600
O99         O  0.40870649  0.08936498  0.80392628    -0.57900
O100        O  0.42445549  0.06644706  0.82736753    -0.48000
O101        O  0.42836528  0.08739402  0.80012271    -0.54300
C102        C  0.44720791  0.08962868  0.82243959     0.85800
O103        O  0.41808858  0.09286806  0.84084074    -0.56200
O104        O  0.40670836  0.07159580  0.81937013    -0.59500
In105      In  0.42731395  0.83344570  0.92359792     1.36900
C106        C  0.42223896  0.80910353  0.91866739     0.78200
O107        O  0.44424213  0.83298873  0.91053886    -0.60200
O108        O  0.44733742  0.83760710  0.92988609    -0.51100
C109        C  0.41838566  0.85353530  0.91087422     0.70900
O110        O  0.41981336  0.84287407  0.90573405    -0.46000
C111        C  0.41949694  0.83413600  0.94765182     0.75600
O112        O  0.41451500  0.81781506  0.91587141    -0.57900
O113        O  0.43051841  0.83747381  0.94427977    -0.48000
O114        O  0.43241406  0.81292664  0.92377461    -0.54300
C115        C  0.45215710  0.83581557  0.91910494     0.85800
O116        O  0.42081782  0.85370457  0.92256194    -0.56200
O117        O  0.41226637  0.83080431  0.93864492    -0.59500
In118      In  0.42865456  0.82565113  0.07074758     1.36900
C119        C  0.42284959  0.83292902  0.04709296     0.78200
O120        O  0.44747195  0.82428576  0.06087592    -0.60200
O121        O  0.44741457  0.82491909  0.08102084    -0.51100
C122        C  0.41982090  0.84200961  0.08803566     0.70900
O123        O  0.43048133  0.84313442  0.08273845    -0.46000
C124        C  0.42122725  0.80213133  0.07626039     0.75600
O125        O  0.42531948  0.84067845  0.05585497    -0.57900
O126        O  0.43219212  0.80634460  0.07873884    -0.48000
O127        O  0.42282868  0.82150003  0.05053907    -0.54300
C128        C  0.45389215  0.82427256  0.07099379     0.85800
O129        O  0.41339613  0.83262365  0.08426380    -0.56200
O130        O  0.41379907  0.81010543  0.07130678    -0.59500
In131      In  0.57598463  0.83471814  0.93217404     1.36900
C132        C  0.58312804  0.83431940  0.95655423     0.78200
O133        O  0.55877728  0.84563715  0.93824838    -0.60200
O134        O  0.55635384  0.83126310  0.92434202    -0.51100
C135        C  0.58373627  0.85304963  0.91633039     0.70900
O136        O  0.58378312  0.85422284  0.92821632    -0.46000
C137        C  0.58308626  0.81121148  0.92645375     0.75600
O138        O  0.59066437  0.83748889  0.94780646    -0.57900
O139        O  0.57168858  0.81420789  0.92853844    -0.48000
O140        O  0.57210391  0.83140727  0.95278526    -0.54300
C141        C  0.55121845  0.83966522  0.93109174     0.85800
O142        O  0.58032543  0.84224882  0.91248831    -0.56200
O143        O  0.59086489  0.82032910  0.92689899    -0.59500
In144      In  0.57585583  0.83025095  0.08028238     1.36900
C145        C  0.58493918  0.80751762  0.08649640     0.78200
O146        O  0.55841516  0.83682631  0.09054660    -0.60200
O147        O  0.55630792  0.82290497  0.07613602    -0.51100
C148        C  0.58640467  0.84860352  0.09417847     0.70900
O149        O  0.58674267  0.84860111  0.08223586    -0.46000
C150        C  0.57728392  0.83470412  0.05544064     0.75600
O151        O  0.59206075  0.81637588  0.08267725    -0.57900
O152        O  0.57004874  0.84079856  0.06268784    -0.48000
O153        O  0.57340457  0.81047217  0.08751232    -0.54300
C154        C  0.55101130  0.82964275  0.08443970     0.85800
O155        O  0.58140036  0.83886239  0.09899014    -0.56200
O156        O  0.58418218  0.82661444  0.06094743    -0.59500
In157      In  0.57679811  0.68898098  0.93107068     1.36900
C158        C  0.55379393  0.68151455  0.92290731     0.78200
O159        O  0.56583112  0.69109207  0.94925144    -0.60200
O160        O  0.58566276  0.68821321  0.95074258    -0.51100
C161        C  0.59553956  0.67389305  0.92268872     0.70900
O162        O  0.58636608  0.66984443  0.92923771    -0.46000
C163        C  0.58099595  0.71247660  0.92290346     0.75600
O164        O  0.56254922  0.67378999  0.92550154    -0.57900
O165        O  0.58349966  0.70897790  0.93410451    -0.48000
O166        O  0.55702588  0.69296904  0.92383408    -0.54300
C167        C  0.57530858  0.68995781  0.95645947     0.85800
O168        O  0.59489869  0.68551061  0.92006121    -0.56200
O169        O  0.57684950  0.70381280  0.91572418    -0.59500
In170      In  0.58289677  0.68491134  0.08012714     1.36900
C171        C  0.58363181  0.70867341  0.08916775     0.78200
O172        O  0.59567704  0.68420208  0.06307248    -0.60200
O173        O  0.57656698  0.69017146  0.06038229    -0.51100
C174        C  0.60062035  0.66894119  0.08924048     0.70900
O175        O  0.60100945  0.68071001  0.09104777    -0.46000
C176        C  0.55936480  0.67531862  0.08295705     0.75600
O177        O  0.58764663  0.70567724  0.07835214    -0.57900
O178        O  0.56572733  0.67431958  0.07292482    -0.48000
O179        O  0.57936221  0.69948898  0.09553250    -0.54300
C180        C  0.58719787  0.68780730  0.05537849     0.85800
O181        O  0.59085484  0.66522992  0.08334281    -0.56200
O182        O  0.56515579  0.68092179  0.09185731    -0.59500
In183      In  0.43834087  0.68099107  0.08341110     1.36900
C184        C  0.46136987  0.67483572  0.09263588     0.78200
O185        O  0.43263920  0.67447250  0.06383228    -0.60200
O186        O  0.44737339  0.68821953  0.06554539    -0.51100
C187        C  0.41900931  0.66597570  0.09071281     0.70900
O188        O  0.42973002  0.66160649  0.08768399    -0.46000
C189        C  0.43306289  0.70497462  0.08914878     0.75600
O190        O  0.45293905  0.67995702  0.09934966    -0.57900
O191        O  0.43056767  0.70014973  0.07849332    -0.48000
O192        O  0.45774907  0.67219028  0.08154858    -0.54300
C193        C  0.44060080  0.68151882  0.05825756     0.85800
O194        O  0.41840762  0.67784618  0.09043734    -0.56200
O195        O  0.43815379  0.69749426  0.09698809    -0.59500
In196      In  0.43176013  0.68652639  0.93520184     1.36900
C197        C  0.42983950  0.71160847  0.93243405     0.78200
O198        O  0.42050894  0.68790802  0.95325387    -0.60200
O199        O  0.43901827  0.67998783  0.95423108    -0.51100
C200        C  0.41616188  0.66811279  0.92659114     0.70900
O201        O  0.41231310  0.67918546  0.92882171    -0.46000
C202        C  0.45464954  0.68444245  0.92453272     0.75600
O203        O  0.42451903  0.70402300  0.92477290    -0.57900
O204        O  0.45234633  0.68099281  0.93576678    -0.48000
O205        O  0.43570964  0.70635133  0.94142513    -0.54300
C206        C  0.42911682  0.68318608  0.96012883     0.85800
O207        O  0.42796007  0.66671644  0.92809665    -0.56200
O208        O  0.44508419  0.68850795  0.91850386    -0.59500
In209      In  0.93126448  0.43162125  0.82373447     1.36900
C210        C  0.93334492  0.43026365  0.79855151     0.78200
O211        O  0.91853198  0.44809380  0.81905305    -0.60200
O212        O  0.93467049  0.45137923  0.83078117    -0.51100
C213        C  0.91382201  0.42160242  0.83942715     0.70900
O214        O  0.91373175  0.41961927  0.82762588    -0.46000
C215        C  0.95418566  0.42214260  0.82917822     0.75600
O216        O  0.92532949  0.42362535  0.80457598    -0.57900
O217        O  0.95072225  0.43301788  0.83263724    -0.48000
O218        O  0.94014417  0.43736821  0.80539404    -0.54300
C219        C  0.92511198  0.45599570  0.82519615     0.85800
O220        O  0.92322624  0.42800124  0.84324704    -0.56200
O221        O  0.94558340  0.41569664  0.82379509    -0.59500
In222      In  0.07749659  0.43274469  0.82694328     1.36900
C223        C  0.05365717  0.42652100  0.83361502     0.78200
O224        O  0.06942319  0.45239316  0.82975890    -0.60200
O225        O  0.08829293  0.45077693  0.82306544    -0.51100
C226        C  0.09553286  0.42383847  0.84286539     0.70900
O227        O  0.09345731  0.41910984  0.83207231    -0.46000
C228        C  0.08011188  0.42453007  0.80306844     0.75600
O229        O  0.06289030  0.42602938  0.84129651    -0.57900
O230        O  0.08470784  0.43487626  0.80696434    -0.48000
O231        O  0.05667277  0.42997308  0.82257143    -0.54300
C232        C  0.07937180  0.45802644  0.82617163     0.85800
O233        O  0.08805779  0.43266711  0.84569739    -0.56200
O234        O  0.07467107  0.41803065  0.81154688    -0.59500
In235      In  0.92935991  0.57921120  0.82037945     1.36900
C236        C  0.95212994  0.58933550  0.82597553     0.78200
O237        O  0.92172305  0.55960797  0.82438117    -0.60200
O238        O  0.94160147  0.56181193  0.82207329    -0.51100
C239        C  0.91100027  0.58904676  0.83485571     0.70900
O240        O  0.91914419  0.58129948  0.83890497    -0.46000
C241        C  0.92235778  0.58084021  0.79604886     0.75600
O242        O  0.94338277  0.58818002  0.83405069    -0.57900
O243        O  0.92005556  0.57134799  0.80292741    -0.48000
O244        O  0.94893220  0.58618422  0.81487041    -0.54300
C245        C  0.93247032  0.55437273  0.82417032     0.85800
O246        O  0.91260342  0.59238397  0.82348223    -0.56200
O247        O  0.92809688  0.58978384  0.80166433    -0.59500
In248      In  0.07540913  0.58166686  0.82667242     1.36900
C249        C  0.08361153  0.58593371  0.80288390     0.78200
O250        O  0.07256035  0.56447041  0.83909282    -0.60200
O251        O  0.07431881  0.56157038  0.81933492    -0.51100
C252        C  0.09099232  0.59120375  0.84484307     0.70900
O253        O  0.09481862  0.58417387  0.83603584    -0.46000
C254        C  0.05173648  0.59073001  0.82730208     0.75600
O255        O  0.07263187  0.58886954  0.80657115    -0.57900
O256        O  0.05451854  0.57956961  0.83059183    -0.48000
O257        O  0.09060622  0.58137959  0.81148091    -0.54300
C258        C  0.07283184  0.55663578  0.83011888     0.85800
O259        O  0.07939687  0.59402462  0.84394985    -0.56200
O260        O  0.06117948  0.59750487  0.82417984    -0.59500
In261      In  0.92881505  0.58352992  0.67364611     1.36900
C262        C  0.92330600  0.55906724  0.66880990     0.78200
O263        O  0.94632529  0.59451685  0.66804257    -0.60200
O264        O  0.94872971  0.57583164  0.67491099    -0.51100
C265        C  0.91668666  0.59947471  0.65799851     0.70900
O266        O  0.92518881  0.59192080  0.65445563    -0.46000
C267        C  0.92560535  0.59061525  0.69773772     0.75600
O268        O  0.92458258  0.56339866  0.67986880    -0.57900
O269        O  0.93487336  0.59414463  0.69104630    -0.48000
O270        O  0.92401053  0.56736320  0.66024420    -0.54300
C271        C  0.95394388  0.58577214  0.67077946     0.85800
O272        O  0.91348696  0.59818346  0.66946141    -0.56200
O273        O  0.91745508  0.58390019  0.69192800    -0.59500
In274      In  0.07765312  0.58295328  0.67969525     1.36900
C275        C  0.08356347  0.59070349  0.70325812     0.78200
O276        O  0.05988123  0.57733643  0.69018107    -0.60200
O277        O  0.05799670  0.58489656  0.67161552    -0.51100
C278        C  0.08671200  0.59940535  0.66250848     0.70900
O279        O  0.07649966  0.60098984  0.66846811    -0.46000
C280        C  0.08272776  0.55948050  0.67176843     0.75600
O281        O  0.07832766  0.59773454  0.69513104    -0.57900
O282        O  0.07353667  0.56593074  0.66768020    -0.48000
O283        O  0.08675609  0.57999556  0.69906278    -0.54300
C284        C  0.05250740  0.58052834  0.68129680     0.85800
O285        O  0.09286303  0.58972052  0.66588062    -0.56200
O286        O  0.08986251  0.56523231  0.67957439    -0.59500
In287      In  0.07918132  0.43763384  0.68048989     1.36900
C288        C  0.08782925  0.46137424  0.67750804     0.78200
O289        O  0.05975802  0.43072608  0.67457260    -0.60200
O290        O  0.06095627  0.44628145  0.68727638    -0.51100
C291        C  0.08606220  0.42266821  0.66110349     0.70900
O292        O  0.08448970  0.43442243  0.66003524    -0.46000
C293        C  0.08608471  0.43014449  0.70381101     0.75600
O294        O  0.09402128  0.45295448  0.68331168    -0.57900
O295        O  0.07474072  0.42978900  0.69989101    -0.48000
O296        O  0.07747400  0.45754241  0.67278402    -0.54300
C297        C  0.05389657  0.43894321  0.68094448     0.85800
O298        O  0.08475449  0.41854797  0.67226287    -0.56200
O299        O  0.09405218  0.43355086  0.69554676    -0.59500
In300      In  0.93043802  0.43518238  0.67511182     1.36900
C301        C  0.92541469  0.42990562  0.69944723     0.78200
O302        O  0.94736976  0.42203180  0.67507425    -0.60200
O303        O  0.95051929  0.44151521  0.67140384    -0.51100
C304        C  0.92086421  0.42192296  0.65551740     0.70900
O305        O  0.92250873  0.41717940  0.66636211    -0.46000
C306        C  0.92322247  0.45947272  0.67396248     0.75600
O307        O  0.91751862  0.42772185  0.69065782    -0.57900
O308        O  0.93392711  0.45566513  0.67023730    -0.48000
O309        O  0.93569853  0.43484292  0.69576720    -0.54300
C310        C  0.95531971  0.43067748  0.67272018     0.85800
O311        O  0.92348552  0.43353817  0.65486200    -0.56200
O312        O  0.91594127  0.45077624  0.67788953    -0.59500
In313      In  0.68453009  0.43733232  0.92679698     1.36900
C314        C  0.67574601  0.46091556  0.92387056     0.78200
O315        O  0.69315347  0.44439945  0.94496433    -0.60200
O316        O  0.67824949  0.43092842  0.94635841    -0.51100
C317        C  0.66857858  0.42040227  0.91622021     0.70900
O318        O  0.66868938  0.43194841  0.91323905    -0.46000
C319        C  0.70798245  0.43325664  0.91789114     0.75600
O320        O  0.66946700  0.45229282  0.92932470    -0.57900
O321        O  0.70361535  0.42767750  0.92752189    -0.48000
O322        O  0.68632050  0.45736577  0.91951326    -0.54300
C323        C  0.68617359  0.43786653  0.95211374     0.85800
O324        O  0.67721125  0.41729726  0.92393439    -0.56200
O325        O  0.70003411  0.44017770  0.91220341    -0.59500
In326      In  0.67992022  0.43167557  0.07610808     1.36900
C327        C  0.70274769  0.42584318  0.08545439     0.78200
O328        O  0.67232221  0.42166437  0.05880404    -0.60200
O329        O  0.68610896  0.43612097  0.05615771    -0.51100
C330        C  0.66239498  0.41737007  0.08744563     0.70900
O331        O  0.67188667  0.41279509  0.08181602    -0.46000
C332        C  0.67528935  0.45640374  0.07774152     0.75600
O333        O  0.69388002  0.42985566  0.09238381    -0.57900
O334        O  0.66780767  0.44876464  0.07233460    -0.48000
O335        O  0.69975154  0.42441012  0.07395331    -0.54300
C336        C  0.67883303  0.42804825  0.05108005     0.85800
O337        O  0.66230898  0.42928663  0.08803030    -0.56200
O338        O  0.68492763  0.45134316  0.08276488    -0.59500
In339      In  0.68117027  0.58408347  0.92623730     1.36900
C340        C  0.70529281  0.58748548  0.91875344     0.78200
O341        O  0.68968920  0.59076373  0.94468146    -0.60200
O342        O  0.67303216  0.57940000  0.94539149    -0.51100
C343        C  0.66271723  0.60023701  0.91876115     0.70900
O344        O  0.67224529  0.60368894  0.92519852    -0.46000
C345        C  0.67695942  0.56023703  0.91887351     0.75600
O346        O  0.69637902  0.59451655  0.91489196    -0.57900
O347        O  0.67523668  0.56400624  0.93008017    -0.48000
O348        O  0.70174254  0.57866935  0.92598261    -0.54300
C349        C  0.68172222  0.58500607  0.95148300     0.85800
O350        O  0.66288976  0.58871942  0.91571885    -0.56200
O351        O  0.68039974  0.56880773  0.91121244    -0.59500
In352      In  0.68298942  0.57973359  0.07354021     1.36900
C353        C  0.68270037  0.55542621  0.08048405     0.78200
O354        O  0.66916676  0.58234061  0.05729259    -0.60200
O355        O  0.68766965  0.57544711  0.05330982    -0.51100
C356        C  0.66570377  0.59436228  0.08503153     0.70900
O357        O  0.66524422  0.58245416  0.08525004    -0.46000
C358        C  0.70697435  0.58813225  0.07518160     0.75600
O359        O  0.68545009  0.56417817  0.08818834    -0.57900
O360        O  0.69912566  0.59216271  0.06710248    -0.48000
O361        O  0.67988248  0.55917693  0.06948421    -0.54300
C362        C  0.67691856  0.57859997  0.04901400     0.85800
O363        O  0.67545589  0.59881947  0.07968598    -0.56200
O364        O  0.70232465  0.58051338  0.08316127    -0.59500
In365      In  0.82943145  0.57811199  0.92528910     1.36900
C366        C  0.80411935  0.57888888  0.92369767     0.78200
O367        O  0.82879711  0.56171062  0.91165759    -0.60200
O368        O  0.83504387  0.55831654  0.93053460    -0.51100
C369        C  0.84754687  0.58785283  0.91039008     0.70900
O370        O  0.83593402  0.58809725  0.90725594    -0.46000
C371        C  0.83262197  0.58740442  0.94868299     0.75600
O372        O  0.81097851  0.58731658  0.91854369    -0.57900
O373        O  0.83597083  0.57641604  0.94547930    -0.48000
O374        O  0.81019965  0.57050999  0.92961373    -0.54300
C375        C  0.83252337  0.55373469  0.91975797     0.85800
O376        O  0.84964555  0.58344159  0.92129083    -0.56200
O377        O  0.82809690  0.59398744  0.93972404    -0.59500
In378      In  0.82987945  0.57553015  0.07131362     1.36900
C379        C  0.83643206  0.58279184  0.04788662     0.78200
O380        O  0.83701531  0.55696991  0.06375725    -0.60200
O381        O  0.82435628  0.55641639  0.07930208    -0.51100
C382        C  0.84595434  0.58403831  0.08907922     0.70900
O383        O  0.84396379  0.58992272  0.07885467    -0.46000
C384        C  0.80616200  0.58307847  0.07575863     0.75600
O385        O  0.82535567  0.58435673  0.05219293    -0.57900
O386        O  0.81570063  0.58853975  0.08063766    -0.48000
O387        O  0.84418056  0.57806690  0.05570889    -0.54300
C388        C  0.83093522  0.55025010  0.07151901     0.85800
O389        O  0.83942303  0.57409688  0.09037512    -0.56200
O390        O  0.80882297  0.57409341  0.06837079    -0.59500
In391      In  0.83142296  0.43034962  0.93089849     1.36900
C392        C  0.83020029  0.42351481  0.95538809     0.78200
O393        O  0.84352695  0.44722984  0.93575363    -0.60200
O394        O  0.82784678  0.44993472  0.92324743    -0.51100
C395        C  0.84961727  0.42108964  0.91563359     0.70900
O396        O  0.85012894  0.42026741  0.92755022    -0.46000
C397        C  0.80719936  0.42540361  0.92480862     0.75600
O398        O  0.82892228  0.41567089  0.94646420    -0.57900
O399        O  0.81095071  0.43602704  0.92883255    -0.48000
O400        O  0.83248627  0.43466041  0.95179297    -0.54300
C401        C  0.83705596  0.45488422  0.92920868     0.85800
O402        O  0.83949193  0.42596431  0.91149331    -0.56200
O403        O  0.81590939  0.41729536  0.92362116    -0.59500
In404      In  0.82545287  0.42730516  0.07935248     1.36900
C405        C  0.80171714  0.41950022  0.08360081     0.78200
O406        O  0.82584590  0.44412746  0.09251305    -0.60200
O407        O  0.82677579  0.44746775  0.07272210    -0.51100
C408        C  0.84249313  0.41703296  0.09521890     0.70900
O409        O  0.83093788  0.41374543  0.09505312    -0.46000
C410        C  0.83008589  0.42263080  0.05480795     0.75600
O411        O  0.80542354  0.43068802  0.08564753    -0.57900
O412        O  0.83833905  0.42113515  0.06338110    -0.48000
O413        O  0.81030509  0.41208157  0.07981208    -0.54300
C414        C  0.82649751  0.45215357  0.08370263     0.85800
O415        O  0.84544011  0.42506319  0.08686157    -0.56200
O416        O  0.81937189  0.42605941  0.05881764    -0.59500
In417      In  0.17925679  0.58024930  0.93034034     1.36900
C418        C  0.17174935  0.58483637  0.95421453     0.78200
O419        O  0.17867706  0.55971580  0.93603625    -0.60200
O420        O  0.17954415  0.56405505  0.91643502    -0.51100
C421        C  0.16435376  0.59121472  0.91276403     0.70900
O422        O  0.17620887  0.59295676  0.91324770    -0.46000
C423        C  0.20381353  0.58656936  0.92915722     0.75600
O424        O  0.18249285  0.58809084  0.95006875    -0.57900
O425        O  0.19508662  0.59479634  0.92906004    -0.48000
O426        O  0.16453812  0.58000339  0.94597241    -0.54300
C427        C  0.17898376  0.55558441  0.92482998     0.85800
O428        O  0.16003723  0.58465334  0.92176493    -0.56200
O429        O  0.19990636  0.57525921  0.92978304    -0.59500
In430      In  0.18368839  0.57451376  0.07642844     1.36900
C431        C  0.20899875  0.57577439  0.07891071     0.78200
O432        O  0.18328987  0.55892528  0.09098211    -0.60200
O433        O  0.17897941  0.55433701  0.07182800    -0.51100
C434        C  0.16404143  0.58428098  0.08898702     0.70900
O435        O  0.17527677  0.58490187  0.09331230    -0.46000
C436        C  0.18060927  0.58386342  0.05316781     0.75600
O437        O  0.20178457  0.58319845  0.08494861    -0.57900
O438        O  0.17793020  0.57257269  0.05610555    -0.48000
O439        O  0.20326903  0.56823554  0.07160813    -0.54300
C440        C  0.18045016  0.55044671  0.08306061     0.85800
O441        O  0.16312765  0.57944485  0.07812571    -0.56200
O442        O  0.18486781  0.59052593  0.06222198    -0.59500
In443      In  0.32863470  0.58227694  0.93893514     1.36900
C444        C  0.33339635  0.55985554  0.92822567     0.78200
O445        O  0.34203918  0.57811187  0.95499231    -0.60200
O446        O  0.32521079  0.58833799  0.95909547    -0.51100
C447        C  0.34107980  0.60288455  0.93027922     0.70900
O448        O  0.34550528  0.59184791  0.92932541    -0.46000
C449        C  0.30327009  0.58067836  0.93778587     0.75600
O450        O  0.32854599  0.56890188  0.92203993    -0.57900
O451        O  0.30990367  0.57493407  0.94592253    -0.48000
O452        O  0.33644176  0.56259928  0.93945598    -0.54300
C453        C  0.33526725  0.58332957  0.96328678     0.85800
O454        O  0.33010531  0.60327372  0.93498662    -0.56200
O455        O  0.30959094  0.58735462  0.93006782    -0.59500
In456      In  0.33161796  0.57782739  0.08681764     1.36900
C457        C  0.30750650  0.58012815  0.09448898     0.78200
O458        O  0.32313870  0.58762083  0.07008288    -0.60200
O459        O  0.33934563  0.57609080  0.06694830    -0.51100
C460        C  0.35045345  0.59327730  0.09470858     0.70900
O461        O  0.34048894  0.59726068  0.08939494    -0.46000
C462        C  0.33560850  0.55345948  0.09199189     0.75600
O463        O  0.31652478  0.58578282  0.10014108    -0.57900
O464        O  0.33594179  0.55790383  0.08086396    -0.48000
O465        O  0.31102302  0.57308209  0.08555832    -0.54300
C466        C  0.33092708  0.58322061  0.06223236     0.85800
O467        O  0.35046958  0.58152078  0.09667548    -0.56200
O468        O  0.33364161  0.56157225  0.10055412    -0.59500
In469      In  0.18612833  0.43184992  0.92864132     1.36900
C470        C  0.20934356  0.42599835  0.92037175     0.78200
O471        O  0.18174594  0.45133728  0.92094302    -0.60200
O472        O  0.19050708  0.44984517  0.93905688    -0.51100
C473        C  0.16573547  0.42499813  0.91463615     0.70900
O474        O  0.17654875  0.42685633  0.90981086    -0.46000
C475        C  0.18506484  0.42226462  0.95212948     0.75600
O476        O  0.20073669  0.41775745  0.92184341    -0.57900
O477        O  0.17868308  0.43173081  0.94860325    -0.48000
O478        O  0.20585134  0.43719832  0.92246809    -0.54300
C479        C  0.18602307  0.45700621  0.93060827     0.85800
O480        O  0.16556613  0.42600445  0.92652499    -0.56200
O481        O  0.19145159  0.41716915  0.94343141    -0.59500
In482      In  0.18235922  0.42726070  0.07615956     1.36900
C483        C  0.17907995  0.42211835  0.05146894     0.78200
O484        O  0.17038070  0.44374544  0.07001444    -0.60200
O485        O  0.18599853  0.44728892  0.08234782    -0.51100
C486        C  0.16731575  0.41779949  0.09442071     0.70900
O487        O  0.16910274  0.41225625  0.08400606    -0.46000
C488        C  0.20626979  0.42036948  0.08095178     0.75600
O489        O  0.17057314  0.42020672  0.05965819    -0.57900
O490        O  0.20271132  0.43171877  0.08024731    -0.48000
O491        O  0.18941056  0.42633889  0.05592777    -0.54300
C492        C  0.17676712  0.45178622  0.07616860     0.85800
O493        O  0.17367361  0.42783968  0.09575508    -0.56200
O494        O  0.19746350  0.41231591  0.07952254    -0.59500
In495      In  0.33118556  0.43649721  0.92923384     1.36900
C496        C  0.30836498  0.43269007  0.91869099     0.78200
O497        O  0.32059781  0.44055248  0.94712239    -0.60200
O498        O  0.33679562  0.42861356  0.94830779    -0.51100
C499        C  0.34857462  0.42084084  0.91922698     0.70900
O500        O  0.33875306  0.41689031  0.92479732    -0.46000
C501        C  0.33822284  0.46088414  0.92902631     0.75600
O502        O  0.31686505  0.43927976  0.91340773    -0.57900
O503        O  0.34264013  0.45294687  0.93680654    -0.48000
O504        O  0.31186250  0.42738867  0.92882333    -0.54300
C505        C  0.32777971  0.43396361  0.95405777     0.85800
O506        O  0.34909952  0.43269119  0.91808792    -0.56200
O507        O  0.33055637  0.45627298  0.92100575    -0.59500
In508      In  0.32953980  0.43109044  0.07670642     1.36900
C509        C  0.33406708  0.45592739  0.07868443     0.78200
O510        O  0.34280084  0.42654394  0.06068653    -0.60200
O511        O  0.32309180  0.42866323  0.05662248    -0.51100
C512        C  0.34305502  0.41250312  0.08742808     0.70900
O513        O  0.34786454  0.42311798  0.08465967    -0.46000
C514        C  0.30546978  0.42895162  0.08403349     0.75600
O515        O  0.33534480  0.44857193  0.08807270    -0.57900
O516        O  0.30958995  0.42407393  0.07393585    -0.48000
O517        O  0.33072038  0.45055970  0.06857963    -0.54300
C518        C  0.33411098  0.42656756  0.05240890     0.85800
O519        O  0.33121724  0.41179741  0.08567603    -0.56200
O520        O  0.31376404  0.43467060  0.09059900    -0.59500
In521      In  0.57686649  0.18607831  0.92855110     1.36900
C522        C  0.57946072  0.20991073  0.92059125     0.78200
O523        O  0.55706762  0.17838441  0.92520946    -0.60200
O524        O  0.55946450  0.19357489  0.93816926    -0.51100
C525        C  0.58452809  0.16934329  0.91101502     0.70900
O526        O  0.58612205  0.18110759  0.90995835    -0.46000
C527        C  0.58820651  0.18207524  0.95091778     0.75600
O528        O  0.57124669  0.20242198  0.91607293    -0.57900
O529        O  0.59403389  0.18698336  0.94168809    -0.48000
O530        O  0.58671924  0.20507038  0.92883429    -0.54300
C531        C  0.55188870  0.18601256  0.93279258     0.85800
O532        O  0.57966725  0.16597555  0.92139920    -0.56200
O533        O  0.57700569  0.17859264  0.94840681    -0.59500
In534      In  0.58452598  0.17969953  0.07401514     1.36900
C535        C  0.59010365  0.17464777  0.04973821     0.78200
O536        O  0.56477051  0.17476413  0.06741315    -0.60200
O537        O  0.56722729  0.18132235  0.08629663    -0.51100
C538        C  0.59529463  0.16473878  0.09162434     0.70900
O539        O  0.59929943  0.17575136  0.08925806    -0.46000
C540        C  0.59019493  0.20400904  0.07766835     0.75600
O541        O  0.59078400  0.16641045  0.05836840    -0.57900
O542        O  0.57897272  0.19971265  0.07793695    -0.48000
O543        O  0.58704718  0.18547877  0.05358462    -0.54300
C544        C  0.55963327  0.17753080  0.07783185     0.85800
O545        O  0.58630301  0.16115955  0.08453755    -0.56200
O546        O  0.59866820  0.19579160  0.07564642    -0.59500
In547      In  0.58200239  0.33296374  0.92676130     1.36900
C548        C  0.58850030  0.30872733  0.92465081     0.78200
O549        O  0.58551718  0.34482373  0.94407282    -0.60200
O550        O  0.57844896  0.32612026  0.94659836    -0.51100
C551        C  0.60044828  0.34760110  0.91676143     0.70900
O552        O  0.60055117  0.33570892  0.91627765    -0.46000
C553        C  0.55796793  0.33644228  0.91857909     0.75600
O554        O  0.59417907  0.31633337  0.93195627    -0.57900
O555        O  0.56143509  0.33799049  0.92991106    -0.48000
O556        O  0.57973814  0.31361444  0.91803141    -0.54300
C557        C  0.58209977  0.33629583  0.95171959     0.85800
O558        O  0.59039470  0.35211501  0.92138023    -0.56200
O559        O  0.56692223  0.33363497  0.91115986    -0.59500
In560      In  0.57964680  0.32721289  0.07525139     1.36900
C561        C  0.55703666  0.33370690  0.08448126     0.78200
O562        O  0.57527823  0.33363546  0.05531066    -0.60200
O563        O  0.59051003  0.32084195  0.05805892    -0.51100
C564        C  0.59676328  0.34337707  0.08496944     0.70900
O565        O  0.58884205  0.34650771  0.07655012    -0.46000
C566        C  0.57883625  0.30223138  0.07899335     0.75600
O567        O  0.56014421  0.33505948  0.07301849    -0.57900
O568        O  0.56944750  0.30858837  0.07520151    -0.48000
O569        O  0.56583365  0.32962135  0.09157909    -0.54300
C570        C  0.58388966  0.32707863  0.05030776     0.85800
O571        O  0.59568128  0.33210515  0.08873348    -0.56200
O572        O  0.58876216  0.30867158  0.08118210    -0.59500
In573      In  0.43450210  0.33250666  0.92692380     1.36900
C574        C  0.45810919  0.34117508  0.92240332     0.78200
O575        O  0.42561718  0.33508451  0.94609357    -0.60200
O576        O  0.44274281  0.32457776  0.94489097    -0.51100
C577        C  0.41619676  0.34798213  0.91797573     0.70900
O578        O  0.42531515  0.35178231  0.92475705    -0.46000
C579        C  0.43077637  0.30870614  0.91935266     0.75600
O580        O  0.45295098  0.33269016  0.91569460    -0.57900
O581        O  0.42564912  0.31318265  0.92917994    -0.48000
O582        O  0.45092401  0.34576723  0.93070881    -0.54300
C583        C  0.43409849  0.32889638  0.95186469     0.85800
O584        O  0.41689556  0.33648035  0.91499504    -0.56200
O585        O  0.43725727  0.31659399  0.91303321    -0.59500
In586      In  0.43367604  0.33166144  0.07388335     1.36900
C587        C  0.42993144  0.30757330  0.08072031     0.78200
O588        O  0.42944399  0.32285842  0.05475526    -0.60200
O589        O  0.43161075  0.34276705  0.05582166    -0.51100
C590        C  0.41726551  0.34716716  0.08536645     0.70900
O591        O  0.41422019  0.34012414  0.07619288    -0.46000
C592        C  0.45802648  0.33839399  0.07750212     0.75600
O593        O  0.42294995  0.31645353  0.08459155    -0.57900
O594        O  0.45247726  0.33056723  0.08467629    -0.48000
O595        O  0.43899979  0.31109377  0.07371558    -0.54300
C596        C  0.42951097  0.33328154  0.04892195     0.85800
O597        O  0.42858822  0.34582033  0.08916608    -0.56200
O598        O  0.45104490  0.34299428  0.06896745    -0.59500
In599      In  0.42818648  0.18540561  0.92890610     1.36900
C600        C  0.42063969  0.18280410  0.95297365     0.78200
O601        O  0.44813663  0.18580966  0.93661123    -0.60200
O602        O  0.44538504  0.18031473  0.91741777    -0.51100
C603        C  0.41875024  0.16680303  0.91428684     0.70900
O604        O  0.41978545  0.16587155  0.92616660    -0.46000
C605        C  0.42329635  0.20972631  0.92344831     0.75600
O606        O  0.41383684  0.18800810  0.94458259    -0.57900
O607        O  0.43428250  0.20570424  0.92596666    -0.48000
O608        O  0.43098701  0.17838562  0.94892322    -0.54300
C609        C  0.45313258  0.18216563  0.92638749     0.85800
O610        O  0.42188169  0.17748963  0.90992996    -0.56200
O611        O  0.41480978  0.20126265  0.92334776    -0.59500
In612      In  0.43643523  0.18450333  0.07446130     1.36900
C613        C  0.43551342  0.20856815  0.08194654     0.78200
O614        O  0.45620121  0.17923395  0.08077255    -0.60200
O615        O  0.45357248  0.18545622  0.06180980    -0.51100
C616        C  0.42702988  0.16959135  0.09269562     0.70900
O617        O  0.42331196  0.18082927  0.09112552    -0.46000
C618        C  0.42593799  0.17885588  0.05199923     0.75600
O619        O  0.42599827  0.20310082  0.07696067    -0.57900
O620        O  0.42839586  0.17056726  0.06023985    -0.48000
O621        O  0.44506083  0.20157788  0.08360007    -0.54300
C622        C  0.46121747  0.18163788  0.07018682     0.85800
O623        O  0.43508211  0.16594915  0.08469570    -0.56200
O624        O  0.42786605  0.19006440  0.05563500    -0.59500
In625      In  0.57522543  0.93573536  0.17943365     1.36900
C626        C  0.58297143  0.95975418  0.17736610     0.78200
O627        O  0.55959505  0.93847323  0.16486319    -0.60200
O628        O  0.55449271  0.93459249  0.18390991    -0.51100
C629        C  0.58319691  0.91568792  0.16614739     0.70900
O630        O  0.58364696  0.92680513  0.16178470    -0.46000
C631        C  0.58080152  0.93159035  0.20374701     0.75600
O632        O  0.58962414  0.95065492  0.17339093    -0.57900
O633        O  0.57011175  0.92905084  0.19887638    -0.48000
O634        O  0.57253953  0.95649144  0.18224662    -0.54300
C635        C  0.55076740  0.93679910  0.17275549     0.85800
O636        O  0.57931578  0.91496156  0.17738894    -0.56200
O637        O  0.58896561  0.93579519  0.19602288    -0.59500
In638      In  0.58344726  0.08394999  0.18326205     1.36900
C639        C  0.59312459  0.08840381  0.20644135     0.78200
O640        O  0.56642599  0.09612984  0.18649962    -0.60200
O641        O  0.56483445  0.08133262  0.17293987    -0.51100
C642        C  0.59422289  0.09647798  0.16374780     0.70900
O643        O  0.59055895  0.10195829  0.17369116    -0.46000
C644        C  0.58203350  0.05872750  0.18496879     0.75600
O645        O  0.59972601  0.08381496  0.19759853    -0.57900
O646        O  0.57397973  0.06605446  0.18980889    -0.48000
O647        O  0.58201406  0.09138925  0.20315632    -0.54300
C648        C  0.55944321  0.09027828  0.17871562     0.85800
O649        O  0.59324781  0.08460263  0.16418389    -0.56200
O650        O  0.59100666  0.06426751  0.17921607    -0.59500
In651      In  0.56405339  0.93060607  0.32631395     1.36900
C652        C  0.53963389  0.92365516  0.32871678     0.78200
O653        O  0.56144121  0.94693293  0.33980527    -0.60200
O654        O  0.56855738  0.95057570  0.32129283    -0.51100
C655        C  0.58410224  0.92303313  0.34016347     0.70900
O656        O  0.57294757  0.92298747  0.34455929    -0.46000
C657        C  0.56762041  0.92457230  0.30204615     0.75600
O658        O  0.54866812  0.91600950  0.33054409    -0.57900
O659        O  0.56692810  0.93583123  0.30593653    -0.48000
O660        O  0.54314375  0.93471673  0.32591623    -0.54300
C661        C  0.56533492  0.95503625  0.33189167     0.85800
O662        O  0.58479513  0.92628187  0.32871342    -0.56200
O663        O  0.56640506  0.91626386  0.31059530    -0.59500
In664      In  0.57855869  0.07799640  0.32709638     1.36900
C665        C  0.58626307  0.08832792  0.30525501     0.78200
O666        O  0.57254997  0.06114560  0.31553666    -0.60200
O667        O  0.58073906  0.05788016  0.33368368    -0.51100
C668        C  0.59511294  0.08595385  0.34494042     0.70900
O669        O  0.58469387  0.09144117  0.34275769    -0.46000
C670        C  0.55412944  0.08149129  0.33298072     0.75600
O671        O  0.58971383  0.07745876  0.30883968    -0.57900
O672        O  0.56182879  0.07599292  0.34031051    -0.48000
O673        O  0.57965121  0.09424391  0.31324204    -0.54300
C674        C  0.57579698  0.05318332  0.32382159     0.85800
O675        O  0.59729593  0.07675733  0.33765999    -0.56200
O676        O  0.55906984  0.08582089  0.32299523    -0.59500
In677      In  0.42620602  0.93264922  0.17255354     1.36900
C678        C  0.41616560  0.92852870  0.19549006     0.78200
O679        O  0.44355780  0.92116267  0.17729781    -0.60200
O680        O  0.44626036  0.93904254  0.16851656    -0.51100
C681        C  0.41992592  0.91743499  0.15299922     0.70900
O682        O  0.41720176  0.91459614  0.16430688    -0.46000
C683        C  0.42113622  0.95732212  0.16960995     0.75600
O684        O  0.40941852  0.93190912  0.18613519    -0.57900
O685        O  0.42925470  0.95319657  0.17741781    -0.48000
O686        O  0.42769354  0.92675887  0.19288270    -0.54300
C687        C  0.45132975  0.92929888  0.17322364     0.85800
O688        O  0.42521782  0.92806103  0.15180153    -0.56200
O689        O  0.41531257  0.94880327  0.16348689    -0.59500
In690      In  0.43758272  0.07965227  0.17468712     1.36900
C691        C  0.42782355  0.05632432  0.17464212     0.78200
O692        O  0.45531597  0.07076346  0.16705965    -0.60200
O693        O  0.45609258  0.09017967  0.17220327    -0.51100
C694        C  0.42642042  0.09512221  0.15784667     0.70900
O695        O  0.42621999  0.08326942  0.15682046    -0.46000
C696        C  0.43805644  0.08328964  0.19974387     0.75600
O697        O  0.43673995  0.05967689  0.16736745    -0.57900
O698        O  0.44747711  0.07953964  0.19347271    -0.48000
O699        O  0.42344104  0.06508082  0.18146263    -0.54300
C700        C  0.46199063  0.08064035  0.16812194     0.85800
O701        O  0.43149659  0.09907154  0.16793781    -0.56200
O702        O  0.42825053  0.08563537  0.19316008    -0.59500
In703      In  0.41599958  0.93235120  0.31944909     1.36900
C704        C  0.41477097  0.92502000  0.29512539     0.78200
O705        O  0.40352572  0.94965693  0.32096327    -0.60200
O706        O  0.42304707  0.95231015  0.31668921    -0.51100
C707        C  0.39870970  0.92189675  0.33519308     0.70900
O708        O  0.39738907  0.92201823  0.32332412    -0.46000
C709        C  0.43985574  0.92880813  0.32782839     0.75600
O710        O  0.41180498  0.93597790  0.29876957    -0.57900
O711        O  0.43234572  0.93676315  0.33253315    -0.48000
O712        O  0.41806658  0.91762661  0.30396891    -0.54300
C713        C  0.41242679  0.95739403  0.31880261     0.85800
O714        O  0.40918010  0.92636034  0.33895572    -0.56200
O715        O  0.43501423  0.92208535  0.31914888    -0.59500
In716      In  0.42995107  0.08008497  0.32309846     1.36900
C717        C  0.45455756  0.08660347  0.32491756     0.78200
O718        O  0.43361477  0.06188238  0.33354118    -0.60200
O719        O  0.42089632  0.06140112  0.31785041    -0.51100
C720        C  0.41481227  0.08960424  0.34125484     0.70900
O721        O  0.42666877  0.09133413  0.34105607    -0.46000
C722        C  0.42620167  0.08573234  0.29861751     0.75600
O723        O  0.44602505  0.09442614  0.32186481    -0.57900
O724        O  0.43223435  0.07615537  0.30241838    -0.48000
O725        O  0.45045780  0.07561965  0.32728914    -0.54300
C726        C  0.42652062  0.05527252  0.32647815     0.85800
O727        O  0.41056257  0.08360141  0.33181139    -0.56200
O728        O  0.42181290  0.09253337  0.30741544    -0.59500
In729      In  0.17921471  0.93286463  0.57396032     1.36900
C730        C  0.20230297  0.92835942  0.58369813     0.78200
O731        O  0.19036138  0.92824416  0.55631531    -0.60200
O732        O  0.17032064  0.92919506  0.55470402    -0.51100
C733        C  0.16113001  0.91829035  0.58438886     0.70900
O734        O  0.16943796  0.91414240  0.57690300    -0.46000
C735        C  0.17348902  0.95740855  0.57603847     0.75600
O736        O  0.19299116  0.92098617  0.58541427    -0.57900
O737        O  0.17124585  0.95093612  0.56624882    -0.48000
O738        O  0.19962946  0.93828940  0.57760878    -0.54300
C739        C  0.18075928  0.92722058  0.54921588     0.85800
O740        O  0.16235718  0.92986836  0.58704884    -0.56200
O741        O  0.17843382  0.95127293  0.58508884    -0.59500
In742      In  0.18264862  0.07958778  0.57394901     1.36900
C743        C  0.18033441  0.05559057  0.58181122     0.78200
O744        O  0.16958447  0.08300047  0.55743909    -0.60200
O745        O  0.18767995  0.07485469  0.55386749    -0.51100
C746        C  0.16579828  0.09553240  0.58435983     0.70900
O747        O  0.16434176  0.08370071  0.58436251    -0.46000
C748        C  0.20683489  0.08753420  0.57601162     0.75600
O749        O  0.18368791  0.06444623  0.58916200    -0.57900
O750        O  0.19918861  0.09158538  0.56776148    -0.48000
O751        O  0.17818938  0.05903335  0.57055056    -0.54300
C752        C  0.17732654  0.07890693  0.54934544     0.85800
O753        O  0.17630956  0.09917866  0.57992573    -0.56200
O754        O  0.20200235  0.07976074  0.58374755    -0.59500
In755      In  0.32545434  0.93119768  0.57935376     1.36900
C756        C  0.30168394  0.92911131  0.58821031     0.78200
O757        O  0.33836397  0.94788937  0.58289084    -0.60200
O758        O  0.32040108  0.95124502  0.57428262    -0.51100
C759        C  0.34330612  0.92021493  0.59381268     0.70900
O760        O  0.33306491  0.92439886  0.59831970    -0.46000
C761        C  0.32643292  0.92323256  0.55533390     0.75600
O762        O  0.30592742  0.92194022  0.57966622    -0.57900
O763        O  0.32901715  0.93441198  0.55869058    -0.48000
O764        O  0.30978110  0.93669352  0.59270862    -0.54300
C765        C  0.33067738  0.95588854  0.57845372     0.85800
O766        O  0.34398430  0.92083134  0.58191858    -0.56200
O767        O  0.32334613  0.91594136  0.56433902    -0.59500
In768      In  0.32989642  0.07947915  0.57100453     1.36900
C769        C  0.33817668  0.08721830  0.54828522     0.78200
O770        O  0.32331480  0.06237233  0.56005939    -0.60200
O771        O  0.33382952  0.05951230  0.57704833    -0.51100
C772        C  0.34576293  0.08927897  0.58837743     0.70900
O773        O  0.34795744  0.07923071  0.58239281    -0.46000
C774        C  0.30622847  0.08276121  0.57941868     0.75600
O775        O  0.34486394  0.08083182  0.55584930    -0.57900
O776        O  0.31375365  0.07467550  0.58398568    -0.48000
O777        O  0.32745922  0.09034365  0.55260780    -0.54300
C778        C  0.32808069  0.05456872  0.56776126     0.85800
O779        O  0.33556971  0.09471381  0.58518198    -0.56200
O780        O  0.31099976  0.08974642  0.57090031    -0.59500
In781      In  0.32598207  0.93382970  0.43201746     1.36900
C782        C  0.33254416  0.92916480  0.45615007     0.78200
O783        O  0.32362998  0.95427040  0.43769691    -0.60200
O784        O  0.33344826  0.95035807  0.42065582    -0.51100
C785        C  0.34099985  0.92199984  0.41548318     0.70900
O786        O  0.34250911  0.92107051  0.42733283    -0.46000
C787        C  0.30160037  0.92783901  0.42783304     0.75600
O788        O  0.32278715  0.92433197  0.45105708    -0.57900
O789        O  0.31032220  0.91967976  0.42775318    -0.48000
O790        O  0.33915294  0.93588287  0.44878546    -0.54300
C791        C  0.32947539  0.95864343  0.42821739     0.85800
O792        O  0.33145021  0.92841110  0.41215496    -0.56200
O793        O  0.30537707  0.93897185  0.42998122    -0.59500
In794      In  0.32626144  0.08262981  0.42769312     1.36900
C795        C  0.30212364  0.08398449  0.41974307     0.78200
O796        O  0.33259593  0.06263733  0.42382502    -0.60200
O797        O  0.31940357  0.06570882  0.43867745    -0.51100
C798        C  0.34218570  0.09107762  0.40954148     0.70900
O799        O  0.33067159  0.09423948  0.41014381    -0.46000
C800        C  0.33170506  0.09355166  0.44995972     0.75600
O801        O  0.30651305  0.09115756  0.42830599    -0.57900
O802        O  0.32455040  0.09868576  0.44182808    -0.48000
O803        O  0.31016630  0.07656304  0.41499840    -0.54300
C804        C  0.32584427  0.05783906  0.43247867     0.85800
O805        O  0.34581705  0.08423821  0.41864828    -0.56200
O806        O  0.33678066  0.08342643  0.44629166    -0.59500
In807      In  0.17709088  0.93313347  0.42749762     1.36900
C808        C  0.17328595  0.95520833  0.41554462     0.78200
O809        O  0.16671836  0.93801713  0.44538994    -0.60200
O810        O  0.18026204  0.92320818  0.44624337    -0.51100
C811        C  0.16225359  0.91470050  0.41792921     0.70900
O812        O  0.15787388  0.92472011  0.42263715    -0.46000
C813        C  0.20243679  0.93393997  0.42778837     0.75600
O814        O  0.16968239  0.95302632  0.42671539    -0.57900
O815        O  0.19558709  0.94125551  0.43424096    -0.48000
O816        O  0.17823214  0.94582174  0.41009137    -0.54300
C817        C  0.17226780  0.92984788  0.45211578     0.85800
O818        O  0.17422179  0.91445750  0.41731224    -0.56200
O819        O  0.19634365  0.92599237  0.42113894    -0.59500
In820      In  0.17915435  0.07651891  0.42563219     1.36900
C821        C  0.20281956  0.08522841  0.42267103     0.78200
O822        O  0.17479296  0.08243936  0.44564275    -0.60200
O823        O  0.18361181  0.06466684  0.44274750    -0.51100
C824        C  0.16379229  0.09393622  0.41539201     0.70900
O825        O  0.17385302  0.09033767  0.40999840    -0.46000
C826        C  0.17172415  0.05374967  0.41724229     0.75600
O827        O  0.19542704  0.08919320  0.43114320    -0.57900
O828        O  0.18321398  0.05723664  0.41741970    -0.48000
O829        O  0.19792348  0.07719516  0.41521215    -0.54300
C830        C  0.17933297  0.07253966  0.45055867     0.85800
O831        O  0.16142520  0.08829059  0.42566605    -0.56200
O832        O  0.16397616  0.06218395  0.42055628    -0.59500
In833      In  0.92934687  0.57185889  0.17881261     1.36900
C834        C  0.93001994  0.57350903  0.20402353     0.78200
O835        O  0.91816510  0.55417128  0.18266147    -0.60200
O836        O  0.93287514  0.55324644  0.16895956    -0.51100
C837        C  0.91097395  0.58160233  0.16419282     0.70900
O838        O  0.91001804  0.58058318  0.17604481    -0.46000
C839        C  0.95239942  0.58178233  0.17452019     0.75600
O840        O  0.92425741  0.58154028  0.19723016    -0.57900
O841        O  0.94968834  0.57033251  0.17241771    -0.48000
O842        O  0.93542573  0.56482568  0.19791831    -0.54300
C843        C  0.92432128  0.54742372  0.17502287     0.85800
O844        O  0.92165441  0.57842012  0.15985179    -0.56200
O845        O  0.94314311  0.58835581  0.17825157    -0.59500
In846      In  0.07561604  0.57810711  0.17496202     1.36900
C847        C  0.05188517  0.58499010  0.16843049     0.78200
O848        O  0.06490787  0.55974396  0.17669320    -0.60200
O849        O  0.08489587  0.55890875  0.17418592    -0.51100
C850        C  0.09360524  0.58695691  0.15908318     0.70900
O851        O  0.08653106  0.57764358  0.15654636    -0.46000
C852        C  0.08143263  0.58348910  0.19900700     0.75600
O853        O  0.06012655  0.58182478  0.16039153    -0.57900
O854        O  0.08376361  0.57297680  0.19392365    -0.48000
O855        O  0.05603975  0.58555998  0.17963897    -0.54300
C856        C  0.07461093  0.55288816  0.17561778     0.85800
O857        O  0.09104804  0.59226383  0.16946813    -0.56200
O858        O  0.07663500  0.59163583  0.19161314    -0.59500
In859      In  0.92391848  0.58495149  0.32691126     1.36900
C860        C  0.91887734  0.58508494  0.30205511     0.78200
O861        O  0.93960510  0.59930232  0.32471733    -0.60200
O862        O  0.94433168  0.58121816  0.33206055    -0.51100
C863        C  0.91178267  0.60080758  0.34255898     0.70900
O864        O  0.91764225  0.60441573  0.33283073    -0.46000
C865        C  0.92151637  0.56077006  0.33364255     0.75600
O866        O  0.91041785  0.58743859  0.31018677    -0.57900
O867        O  0.92915386  0.56831655  0.33901360    -0.48000
O868        O  0.92959754  0.58243328  0.30670633    -0.54300
C869        C  0.94819153  0.59202076  0.32869880     0.85800
O870        O  0.91144755  0.58897526  0.34395851    -0.56200
O871        O  0.91450342  0.56575380  0.32523709    -0.59500
In872      In  0.07157149  0.58628705  0.31975708     1.36900
C873        C  0.07351447  0.56139977  0.32302682     0.78200
O874        O  0.05602220  0.58596908  0.33420408    -0.60200
O875        O  0.05123358  0.59166092  0.31546480    -0.51100
C876        C  0.08231682  0.60479730  0.33342566     0.70900
O877        O  0.08118338  0.59363221  0.33752334    -0.46000
C878        C  0.07926133  0.58857949  0.29582207     0.75600
O879        O  0.08227173  0.56889467  0.32652481    -0.57900
O880        O  0.06865726  0.59254691  0.29971364    -0.48000
O881        O  0.06421562  0.56662085  0.31760477    -0.54300
C882        C  0.04744459  0.58942203  0.32660026     0.85800
O883        O  0.07882519  0.60625123  0.32208897    -0.56200
O884        O  0.08613815  0.58351836  0.30427259    -0.59500
In885      In  0.93629449  0.42521280  0.17539369     1.36900
C886        C  0.96057919  0.41747311  0.17487131     0.78200
O887        O  0.94233985  0.44207565  0.16388154    -0.60200
O888        O  0.92815696  0.44469057  0.17794889    -0.51100
C889        C  0.92005676  0.41599508  0.15787248     0.70900
O890        O  0.93193359  0.41481906  0.15713064    -0.46000
C891        C  0.93157786  0.42143898  0.20005601     0.75600
O892        O  0.95139284  0.40989438  0.17638662    -0.57900
O893        O  0.93508786  0.43193675  0.19556228    -0.48000
O894        O  0.95730855  0.42886487  0.17353368    -0.54300
C895        C  0.93507152  0.44967171  0.16952336     0.85800
O896        O  0.91638035  0.42126869  0.16790954    -0.56200
O897        O  0.93034684  0.41277083  0.19191049    -0.59500
In898      In  0.08404703  0.42997529  0.18253021     1.36900
C899        C  0.08454970  0.42761456  0.20765016     0.78200
O900        O  0.09714253  0.44699798  0.18217118    -0.60200
O901        O  0.07757722  0.44982859  0.17828318    -0.51100
C902        C  0.10246483  0.41844669  0.16925866     0.70900
O903        O  0.10240605  0.41874861  0.18119546    -0.46000
C904        C  0.06041622  0.42295926  0.17542389     0.75600
O905        O  0.08537600  0.41810375  0.20040239    -0.57900
O906        O  0.06818945  0.42836372  0.16813626    -0.48000
O907        O  0.08349586  0.43810026  0.20199266    -0.54300
C908        C  0.08845875  0.45475677  0.17952883     0.85800
O909        O  0.09266827  0.42309637  0.16420667    -0.56200
O910        O  0.06490006  0.42042864  0.18623901    -0.59500
In911      In  0.92814332  0.43816430  0.32298564     1.36900
C912        C  0.91976014  0.46171064  0.32675935     0.78200
O913        O  0.94376583  0.43979881  0.33744147    -0.60200
O914        O  0.94882967  0.43890594  0.31797023    -0.51100
C915        C  0.92067632  0.41753858  0.33602799     0.70900
O916        O  0.92093044  0.42843001  0.34090211    -0.46000
C917        C  0.92354929  0.43475874  0.29832734     0.75600
O918        O  0.91243497  0.45220532  0.32749154    -0.57900
O919        O  0.93343375  0.43065543  0.30376554    -0.48000
O920        O  0.93112591  0.45907741  0.32412973    -0.54300
C921        C  0.95253801  0.43968876  0.32934199     0.85800
O922        O  0.92327201  0.41740342  0.32440393    -0.56200
O923        O  0.91582819  0.44030555  0.30557164    -0.59500
In924      In  0.07599184  0.43997705  0.33028306     1.36900
C925        C  0.08207110  0.43631345  0.30599453     0.78200
O926        O  0.05923142  0.42705478  0.32769919    -0.60200
O927        O  0.05612686  0.44510633  0.33598929    -0.51100
C928        C  0.08373803  0.42576476  0.34980987     0.70900
O929        O  0.08296187  0.42155552  0.33864720    -0.46000
C930        C  0.08303337  0.46417018  0.33239367     0.75600
O931        O  0.08968891  0.43369604  0.31490690    -0.57900
O932        O  0.07159503  0.46061274  0.33149073    -0.48000
O933        O  0.07154521  0.44064389  0.30958256    -0.54300
C934        C  0.05135216  0.43482553  0.33212115     0.85800
O935        O  0.08132836  0.43738485  0.35083194    -0.56200
O936        O  0.09104009  0.45527253  0.33235074    -0.59500
In937      In  0.93535666  0.18314461  0.57655699     1.36900
C938        C  0.95968570  0.17882536  0.58302426     0.78200
O939        O  0.93300318  0.16999926  0.55987995    -0.60200
O940        O  0.93608895  0.18954032  0.55624467    -0.51100
C941        C  0.91631900  0.16858217  0.58521432     0.70900
O942        O  0.92768600  0.16484417  0.58474092    -0.46000
C943        C  0.93135499  0.20720201  0.58358260     0.75600
O944        O  0.95067421  0.17776021  0.59082555    -0.57900
O945        O  0.92759544  0.20276814  0.57311459    -0.48000
O946        O  0.95622283  0.18192595  0.57199375    -0.54300
C947        C  0.93408786  0.17865756  0.55171003     0.85800
O948        O  0.91479988  0.17992902  0.58187486    -0.56200
O949        O  0.93682174  0.19923934  0.59065718    -0.59500
In950      In  0.08283853  0.18550970  0.57231296     1.36900
C951        C  0.08596321  0.20904055  0.58103329     0.78200
O952        O  0.08878328  0.17858794  0.55299606    -0.60200
O953        O  0.07544693  0.19357177  0.55398922    -0.51100
C954        C  0.10266182  0.17185748  0.58082198     0.70900
O955        O  0.10377662  0.18247444  0.57553478    -0.46000
C956        C  0.05927086  0.17687489  0.57691668     0.75600
O957        O  0.08193703  0.20009997  0.58792987    -0.57900
O958        O  0.06671142  0.17174525  0.56915041    -0.48000
O959        O  0.08877986  0.20582727  0.56987106    -0.54300
C960        C  0.08173100  0.18621319  0.54704343     0.85800
O961        O  0.09129064  0.16834808  0.58242641    -0.56200
O962        O  0.06413447  0.18595619  0.58303368    -0.59500
In963      In  0.07879089  0.33227544  0.57716301     1.36900
C964        C  0.08649106  0.30837180  0.58018813     0.78200
O965        O  0.05834525  0.32750456  0.58129432    -0.60200
O966        O  0.06279560  0.34604849  0.57480842    -0.51100
C967        C  0.08637135  0.34650341  0.59687681     0.70900
O968        O  0.08309072  0.33507839  0.59795248    -0.46000
C969        C  0.08457050  0.33556954  0.55261744     0.75600
O970        O  0.09415845  0.31739855  0.57820440    -0.57900
O971        O  0.07430703  0.33064634  0.55637406    -0.48000
O972        O  0.07498162  0.31164283  0.58095643    -0.54300
C973        C  0.05432224  0.33837531  0.57835579     0.85800
O974        O  0.08668895  0.35045875  0.58558794    -0.56200
O975        O  0.09209150  0.33873196  0.56145458    -0.59500
In976      In  0.93121150  0.33083495  0.57440424     1.36900
C977        C  0.93051404  0.33362102  0.54918838     0.78200
O978        O  0.95075275  0.33906683  0.57211816    -0.60200
O979        O  0.94718875  0.32721599  0.58806768    -0.51100
C980        C  0.92027388  0.34759332  0.59009393     0.70900
O981        O  0.92730728  0.35090507  0.58102714    -0.46000
C982        C  0.92437856  0.30636499  0.57623190     0.75600
O983        O  0.92083782  0.33590399  0.55590996    -0.57900
O984        O  0.93506829  0.31052332  0.57979624    -0.48000
O985        O  0.94013533  0.33011742  0.55536051    -0.54300
C986        C  0.95511966  0.33382160  0.58197020     0.85800
O987        O  0.91802174  0.33589689  0.59049323    -0.56200
O988        O  0.91702820  0.31475781  0.57188519    -0.59500
In989      In  0.92672682  0.33104735  0.42505364     1.36900
C990        C  0.91904508  0.30745356  0.41927720     0.78200
O991        O  0.94705774  0.32724946  0.41979131    -0.60200
O992        O  0.94314115  0.34372587  0.43057563    -0.51100
C993        C  0.91875754  0.34806977  0.40776779     0.70900
O994        O  0.91483161  0.34778341  0.41902412    -0.46000
C995        C  0.92076299  0.33269969  0.44975999     0.75600
O996        O  0.91130683  0.31641686  0.42071869    -0.57900
O997        O  0.93043171  0.32692939  0.44577937    -0.48000
O998        O  0.93051778  0.31065451  0.42047375    -0.54300
C999        C  0.95143661  0.33690777  0.42535274     0.85800
O1000       O  0.92633931  0.33926430  0.40507933    -0.56200
O1001       O  0.91392659  0.33735727  0.44109614    -0.59500
In1002     In  0.07530912  0.33094901  0.42799979     1.36900
C1003       C  0.07561778  0.33238000  0.45338534     0.78200
O1004       O  0.05559940  0.33897449  0.42932589    -0.60200
O1005       O  0.05868918  0.32379668  0.41651920    -0.51100
C1006       C  0.08505259  0.34896337  0.41280210     0.70900
O1007       O  0.07634019  0.35100661  0.42065928    -0.46000
C1008       C  0.08547430  0.30806512  0.42469740     0.75600
O1009       O  0.08377463  0.33813906  0.44670971    -0.57900
O1010       O  0.07518976  0.31142500  0.41947987    -0.48000
O1011       O  0.06764015  0.32604863  0.44710109    -0.54300
C1012       C  0.05085835  0.33141871  0.42132350     0.85800
O1013       O  0.08940723  0.33789450  0.41322738    -0.56200
O1014       O  0.09086209  0.31659546  0.43119705    -0.59500
In1015     In  0.93336686  0.18685623  0.42803385     1.36900
C1016       C  0.92653535  0.20897719  0.41781095     0.78200
O1017       O  0.93876135  0.19687265  0.44602887    -0.60200
O1018       O  0.92759721  0.18014644  0.44745536    -0.51100
C1019       C  0.91812538  0.16827051  0.41931022     0.70900
O1020       O  0.91402878  0.17751068  0.42563314    -0.46000
C1021       C  0.95817781  0.18195865  0.42558389     0.75600
O1022       O  0.92361039  0.20572881  0.42893997    -0.57900
O1023       O  0.95076806  0.17527540  0.43216673    -0.48000
O1024       O  0.93216130  0.20052424  0.41153138    -0.54300
C1025       C  0.93324671  0.18903623  0.45316353     0.85800
O1026       O  0.92979757  0.16898432  0.41671375    -0.56200
O1027       O  0.95284749  0.19095620  0.41977474    -0.59500
In1028     In  0.08241424  0.18508895  0.42428215     1.36900
C1029       C  0.05778655  0.18436724  0.41820442     0.78200
O1030       O  0.07713976  0.17939062  0.44407533    -0.60200
O1031       O  0.09584907  0.18638542  0.44093593    -0.51100
C1032       C  0.09503054  0.16510934  0.41517236     0.70900
O1033       O  0.08325104  0.16502518  0.41722765    -0.46000
C1034       C  0.08683608  0.20924095  0.41802666     0.75600
O1035       O  0.06636480  0.18556264  0.40993146    -0.57900
O1036       O  0.08355822  0.20578312  0.42898096    -0.48000
O1037       O  0.06186410  0.18329412  0.42942948    -0.54300
C1038       C  0.08782195  0.18225226  0.44880138     0.85800
O1039       O  0.10035589  0.17564710  0.41712116    -0.56200
O1040       O  0.08812334  0.20029874  0.41022431    -0.59500
In1041     In  0.92089383  0.69359441  0.42004687     1.36900
C1042       C  0.91560670  0.68474454  0.44315866     0.78200
O1043       O  0.94050733  0.68600099  0.41614770    -0.60200
O1044       O  0.93891702  0.70229292  0.42770355    -0.51100
C1045       C  0.91283927  0.67984171  0.40027008     0.70900
O1046       O  0.90944926  0.67747914  0.41149848    -0.46000
C1047       C  0.91164937  0.71649998  0.41530696     0.75600
O1048       O  0.91281249  0.69585185  0.43974411    -0.57900
O1049       O  0.92285417  0.71325963  0.41261882    -0.48000
O1050       O  0.92037740  0.67801639  0.43456063    -0.54300
C1051       C  0.94615831  0.69436578  0.42258868     0.85800
O1052       O  0.91973764  0.68953540  0.39914036    -0.56200
O1053       O  0.90485708  0.70780221  0.42004549    -0.59500
In1054     In  0.06954608  0.68520003  0.42453908     1.36900
C1055       C  0.08129104  0.70697804  0.41888771     0.78200
O1056       O  0.05199800  0.67311275  0.42644784    -0.60200
O1057       O  0.05015741  0.69125528  0.41795632    -0.51100
C1058       C  0.07936818  0.66715966  0.40974301     0.70900
O1059       O  0.07311474  0.67639423  0.40545343    -0.46000
C1060       C  0.06937937  0.68610258  0.44982197     0.75600
O1061       O  0.08658878  0.69841497  0.42536157    -0.57900
O1062       O  0.06311643  0.69358422  0.44292601    -0.48000
O1063       O  0.07041730  0.70404700  0.41473155    -0.54300
C1064       C  0.04468441  0.68128628  0.42169874     0.85800
O1065       O  0.08107674  0.66739691  0.42158256    -0.56200
O1066       O  0.07607640  0.67824287  0.44380792    -0.59500
In1067     In  0.92505641  0.68069344  0.56633033     1.36900
C1068       C  0.92177089  0.70534984  0.57107936     0.78200
O1069       O  0.94495817  0.68299205  0.57382282    -0.60200
O1070       O  0.94125364  0.66779321  0.56113575    -0.51100
C1071       C  0.91536708  0.66404547  0.58291331     0.70900
O1072       O  0.91320642  0.66347399  0.57116974    -0.46000
C1073       C  0.91645370  0.68020223  0.54239481     0.75600
O1074       O  0.91351073  0.69709641  0.57381359    -0.57900
O1075       O  0.92795786  0.67843221  0.54531004    -0.48000
O1076       O  0.93167347  0.70096595  0.56603422    -0.54300
C1077       C  0.94932690  0.67361400  0.56786701     0.85800
O1078       O  0.92194256  0.67346421  0.58626620    -0.56200
O1079       O  0.90923993  0.68197140  0.55174731    -0.59500
In1080     In  0.07241336  0.68299807  0.57330504     1.36900
C1081       C  0.07616825  0.67832808  0.54872499     0.78200
O1082       O  0.05360042  0.67260009  0.57174737    -0.60200
O1083       O  0.05442524  0.68946267  0.58261392    -0.51100
C1084       C  0.08252521  0.66906215  0.59203115     0.70900
O1085       O  0.07794269  0.66420177  0.58209741    -0.46000
C1086       C  0.08063808  0.70690294  0.57386839     0.75600
O1087       O  0.08380025  0.67459020  0.55720336    -0.57900
O1088       O  0.06940269  0.70364991  0.57650898    -0.48000
O1089       O  0.06666419  0.68424571  0.55287117    -0.54300
C1090       C  0.04766127  0.68054146  0.57839624     0.85800
O1091       O  0.08254716  0.68096305  0.59206823    -0.56200
O1092       O  0.08785014  0.69785494  0.57088160    -0.59500
In1093     In  0.92863768  0.82930539  0.56567989     1.36900
C1094       C  0.93104872  0.80416471  0.56707130     0.78200
O1095       O  0.91399415  0.82677063  0.55004418    -0.60200
O1096       O  0.93144176  0.83578391  0.54562479    -0.51100
C1097       C  0.91169140  0.84324357  0.57847681     0.70900
O1098       O  0.91096321  0.83136962  0.57769675    -0.46000
C1099       C  0.95221647  0.83671057  0.57164219     0.75600
O1100       O  0.93525042  0.81073529  0.55800878    -0.57900
O1101       O  0.94560987  0.84194448  0.56316119    -0.48000
O1102       O  0.92572563  0.81046689  0.57574883    -0.54300
C1103       C  0.92080537  0.83190002  0.54166692     0.85800
O1104       O  0.92151296  0.84789933  0.57348458    -0.56200
O1105       O  0.94647803  0.82817067  0.57780707    -0.59500
In1106     In  0.07581436  0.82982322  0.57663142     1.36900
C1107       C  0.05117973  0.83327750  0.58186507     0.78200
O1108       O  0.07743328  0.84248109  0.55941927    -0.60200
O1109       O  0.07664831  0.82258625  0.55671768    -0.51100
C1110       C  0.09466266  0.84435931  0.58586979     0.70900
O1111       O  0.09560200  0.83256918  0.58452450    -0.46000
C1112       C  0.07945814  0.80575417  0.58327290     0.75600
O1113       O  0.05974817  0.83465120  0.59018767    -0.57900
O1114       O  0.08393948  0.81051962  0.57325092    -0.48000
O1115       O  0.05527770  0.83044995  0.57104583    -0.54300
C1116       C  0.07738592  0.83339035  0.55166934     0.85800
O1117       O  0.08381822  0.84870106  0.58320627    -0.56200
O1118       O  0.07362450  0.81347593  0.59027812    -0.59500
In1119     In  0.92545862  0.83748402  0.41813208     1.36900
C1120       C  0.95036323  0.83662636  0.41349647     0.78200
O1121       O  0.92985596  0.85001297  0.43489027    -0.60200
O1122       O  0.92055855  0.83242855  0.43819070    -0.51100
C1123       C  0.90965301  0.85547135  0.40975508     0.70900
O1124       O  0.92153618  0.85612595  0.40847964    -0.46000
C1125       C  0.91861893  0.81467070  0.40960718     0.75600
O1126       O  0.94253201  0.84113401  0.40560644    -0.57900
O1127       O  0.91685666  0.81824411  0.42085217    -0.48000
O1128       O  0.94541480  0.83246780  0.42354963    -0.54300
C1129       C  0.92517874  0.84242950  0.44288657     0.85800
O1130       O  0.90576047  0.84532403  0.41473325    -0.56200
O1131       O  0.92334886  0.82300608  0.40244507    -0.59500
In1132     In  0.07396211  0.82728991  0.42758625     1.36900
C1133       C  0.07951720  0.80529363  0.41636022     0.78200
O1134       O  0.06833232  0.81637222  0.44503145    -0.60200
O1135       O  0.08059854  0.83216891  0.44744959    -0.51100
C1136       C  0.08913425  0.84627042  0.41934900     0.70900
O1137       O  0.09341775  0.83639550  0.42453533    -0.46000
C1138       C  0.04922262  0.83272437  0.42556747     0.75600
O1139       O  0.08358868  0.80831078  0.42721081    -0.57900
O1140       O  0.05651499  0.83791587  0.43354236    -0.48000
O1141       O  0.07343817  0.81394706  0.41076012    -0.54300
C1142       C  0.07447408  0.82327011  0.45264630     0.85800
O1143       O  0.07726595  0.84609907  0.41770461    -0.56200
O1144       O  0.05466211  0.82510198  0.41816824    -0.59500
In1145     In  0.68406337  0.07723292  0.43202716     1.36900
C1146       C  0.68165570  0.08685890  0.45543600     0.78200
O1147       O  0.67186541  0.06078060  0.43774614    -0.60200
O1148       O  0.68717134  0.05744566  0.42505437    -0.51100
C1149       C  0.66951890  0.08496490  0.41236161     0.70900
O1150       O  0.66543772  0.08469183  0.42358389    -0.46000
C1151       C  0.70935292  0.07879038  0.43001846     0.75600
O1152       O  0.68484729  0.09358588  0.44605152    -0.57900
O1153       O  0.70356569  0.06890830  0.43346404    -0.48000
O1154       O  0.67920872  0.07551169  0.45270609    -0.54300
C1155       C  0.67800915  0.05286675  0.43128427     0.85800
O1156       O  0.68110737  0.08226686  0.41142509    -0.56200
O1157       O  0.70222650  0.08816437  0.42779084    -0.59500
In1158     In  0.67324716  0.92956659  0.42594817     1.36900
C1159       C  0.69734093  0.92239541  0.42296780     0.78200
O1160       O  0.68096177  0.94606388  0.41491023    -0.60200
O1161       O  0.66894423  0.94989702  0.43055374    -0.51100
C1162       C  0.65471830  0.92039628  0.41083707     0.70900
O1163       O  0.65837400  0.91465192  0.42067450    -0.46000
C1164       C  0.66682423  0.92544226  0.45000090     0.75600
O1165       O  0.68848663  0.91821866  0.41596422    -0.57900
O1166       O  0.66209820  0.93416457  0.44331662    -0.48000
O1167       O  0.69370612  0.92956934  0.43176350    -0.54300
C1168       C  0.67569819  0.95429485  0.42169863     0.85800
O1169       O  0.66084861  0.93038056  0.40855838    -0.56200
O1170       O  0.67460546  0.91840551  0.44425526    -0.59500
In1171     In  0.67852512  0.93267449  0.56952427     1.36900
C1172       C  0.67308703  0.92090120  0.54780730     0.78200
O1173       O  0.68261740  0.95148949  0.57879421    -0.60200
O1174       O  0.66848817  0.95072887  0.56440569    -0.51100
C1175       C  0.66432585  0.92344217  0.58854146     0.70900
O1176       O  0.65967695  0.92706362  0.57812699    -0.46000
C1177       C  0.70383757  0.93169700  0.56739498     0.75600
O1178       O  0.67843100  0.91525862  0.55694331    -0.57900
O1179       O  0.69687671  0.93833481  0.56027365    -0.48000
O1180       O  0.66991277  0.93214014  0.55014585    -0.54300
C1181       C  0.67470974  0.95747760  0.57207534     0.85800
O1182       O  0.67629477  0.92392521  0.58902600    -0.56200
O1183       O  0.69786635  0.92544655  0.57572153    -0.59500
In1184     In  0.68708196  0.08013847  0.57903869     1.36900
C1185       C  0.71108292  0.08772096  0.58190522     0.78200
O1186       O  0.68635090  0.05999557  0.57230127    -0.60200
O1187       O  0.68687715  0.06319934  0.59211550    -0.51100
C1188       C  0.67160228  0.09033374  0.59633716     0.70900
O1189       O  0.68326245  0.09311249  0.59568717    -0.46000
C1190       C  0.68032966  0.08532034  0.55495091     0.75600
O1191       O  0.70225206  0.09533895  0.57906893    -0.57900
O1192       O  0.67238298  0.08436726  0.56381701    -0.48000
O1193       O  0.70751961  0.07640988  0.58356495    -0.54300
C1194       C  0.68631404  0.05523836  0.58326990     0.85800
O1195       O  0.66773675  0.08306949  0.58765773    -0.56200
O1196       O  0.69171987  0.08403984  0.55845110    -0.59500
In1197     In  0.82768897  0.93177612  0.57430791     1.36900
C1198       C  0.82895781  0.95477871  0.58461076     0.78200
O1199       O  0.82867928  0.94064684  0.55483495    -0.60200
O1200       O  0.83208634  0.92094438  0.55660044    -0.51100
C1201       C  0.84643601  0.91733059  0.58356899     0.70900
O1202       O  0.84716622  0.92922101  0.58301600    -0.46000
C1203       C  0.80317374  0.92572494  0.57727422     0.75600
O1204       O  0.83627054  0.95128067  0.57582330    -0.57900
O1205       O  0.80752917  0.93083670  0.56737802    -0.48000
O1206       O  0.82142551  0.94633227  0.58853385    -0.54300
C1207       C  0.83118641  0.93035942  0.54933022     0.85800
O1208       O  0.83577855  0.91286829  0.58025849    -0.56200
O1209       O  0.81145334  0.92336824  0.58568062    -0.59500
In1210     In  0.83389823  0.07748068  0.58013049     1.36900
C1211       C  0.81040146  0.08309662  0.58810543     0.78200
O1212       O  0.83331454  0.08938038  0.56245849    -0.60200
O1213       O  0.83712820  0.06975629  0.56052611    -0.51100
C1214       C  0.85399439  0.09155002  0.58700032     0.70900
O1215       O  0.84270545  0.09500022  0.58910202    -0.46000
C1216       C  0.83612724  0.05329412  0.58704741     0.75600
O1217       O  0.81393483  0.08425695  0.57677589    -0.57900
O1218       O  0.82959315  0.05682221  0.57761638    -0.48000
O1219       O  0.81905313  0.07953529  0.59561634    -0.54300
C1220       C  0.83568526  0.08031035  0.55509655     0.85800
O1221       O  0.85491907  0.08078642  0.58200626    -0.56200
O1222       O  0.84132806  0.06218706  0.59318057    -0.59500
In1223     In  0.82044195  0.93809080  0.42599110     1.36900
C1224       C  0.79655857  0.92962459  0.42684922     0.78200
O1225       O  0.82805749  0.93274450  0.44523165    -0.60200
O1226       O  0.81633919  0.94902792  0.44376548    -0.51100
C1227       C  0.83545502  0.92074099  0.41522093     0.70900
O1228       O  0.82357655  0.92083959  0.41378972    -0.46000
C1229       C  0.82441467  0.96064462  0.41502464     0.75600
O1230       O  0.80014954  0.93780109  0.41884212    -0.57900
O1231       O  0.81635117  0.95279632  0.41084154    -0.48000
O1232       O  0.80521594  0.92560049  0.43407433    -0.54300
C1233       C  0.82263172  0.94175557  0.45088584     0.85800
O1234       O  0.83977391  0.92991189  0.42155460    -0.56200
O1235       O  0.83089069  0.95664900  0.42427988    -0.59500
In1236     In  0.83123330  0.08022106  0.43182100     1.36900
C1237       C  0.83687015  0.05827037  0.42051348     0.78200
O1238       O  0.82877881  0.06686941  0.44830877    -0.60200
O1239       O  0.83639966  0.08508651  0.45205299    -0.51100
C1240       C  0.84618104  0.09887345  0.42262173     0.70900
O1241       O  0.83480045  0.09728840  0.41915411    -0.46000
C1242       C  0.80691073  0.08740973  0.43036015     0.75600
O1243       O  0.84517629  0.06521013  0.42567134    -0.57900
O1244       O  0.81402433  0.09013753  0.43964602    -0.48000
O1245       O  0.82588685  0.06299555  0.42027549    -0.54300
C1246       C  0.83310253  0.07446284  0.45645558     0.85800
O1247       O  0.85005250  0.09068839  0.43040694    -0.56200
O1248       O  0.81237468  0.08145835  0.42154762    -0.59500
C1249       C  0.83220123  0.02302856  0.41214192     0.19300
C1250       C  0.82243629  0.01562134  0.40675254    -0.18800
C1251       C  0.82294650  0.00235571  0.40714048    -0.11000
C1252       C  0.83326441  0.99616853  0.41302920     0.21600
C1253       C  0.84320216  0.00358522  0.41805808    -0.20400
C1254       C  0.84271136  0.01682188  0.41763826    -0.11200
C1255       C  0.83340731  0.98224525  0.41551710    -0.15400
C1256       C  0.82554420  0.97371651  0.41002936    -0.29200
C1257       C  0.83033494  0.03699013  0.41326271    -0.03500
C1258       C  0.83969724  0.04529089  0.41614526    -0.40000
H1259       H  0.81414942  0.02011970  0.40261104     0.12700
H1260       H  0.81493521  0.99709039  0.40337634     0.12400
H1261       H  0.85119224  0.99911764  0.42278422     0.11800
H1262       H  0.85028789  0.02206007  0.42223953     0.12000
H1263       H  0.83992640  0.97894346  0.42284737     0.14800
H1264       H  0.81914116  0.97648227  0.40242145     0.13500
H1265       H  0.82061979  0.04045273  0.41255199     0.11200
H1266       H  0.84953514  0.04225100  0.41661504     0.13200
C1267       C  0.83950287  0.07654691  0.49258132     0.19300
C1268       C  0.84421551  0.08618699  0.50051111    -0.18800
C1269       C  0.84392032  0.08489264  0.51371081    -0.11000
C1270       C  0.83889216  0.07386775  0.51930511     0.21600
C1271       C  0.83466566  0.06400172  0.51143199    -0.20400
C1272       C  0.83490663  0.06530360  0.49821806    -0.11200
C1273       C  0.83811259  0.07228015  0.53328245    -0.15400
C1274       C  0.83669538  0.08209095  0.54127277    -0.29200
C1275       C  0.83928882  0.07889470  0.47861848    -0.03500
C1276       C  0.83393219  0.07108827  0.47001408    -0.40000
H1277       H  0.84799246  0.09486203  0.49648436     0.12700
H1278       H  0.84770691  0.09250515  0.51947716     0.12400
H1279       H  0.83093810  0.05533983  0.51552434     0.11800
H1280       H  0.83139846  0.05747856  0.49261916     0.12000
H1281       H  0.83807564  0.06269649  0.53706230     0.14800
H1282       H  0.83591173  0.09167614  0.53764070     0.13500
H1283       H  0.84334480  0.08777892  0.47528323     0.11200
H1284       H  0.82976520  0.06211858  0.47277254     0.13200
C1285       C  0.82892130  0.93614799  0.48653575     0.19300
C1286       C  0.83065048  0.92516419  0.49382935    -0.18800
C1287       C  0.83117605  0.92577972  0.50706570    -0.11000
C1288       C  0.83012292  0.93750147  0.51336457     0.21600
C1289       C  0.82851878  0.94851013  0.50603546    -0.20400
C1290       C  0.82795795  0.94787900  0.49278342    -0.11200
C1291       C  0.83011636  0.93869341  0.52746450    -0.15400
C1292       C  0.83262181  0.92909950  0.53550347    -0.29200
C1293       C  0.82847257  0.93493356  0.47248424    -0.03500
C1294       C  0.82329810  0.94364411  0.46472182    -0.40000
H1295       H  0.83144560  0.91601623  0.48926607     0.12700
H1296       H  0.83220544  0.91696627  0.51217060     0.12400
H1297       H  0.82769329  0.95766005  0.51058074     0.11800
H1298       H  0.82696620  0.95663134  0.48753128     0.12000
H1299       H  0.82761186  0.94784969  0.53142538     0.14800
H1300       H  0.83534565  0.91985425  0.53206413     0.13500
H1301       H  0.83211371  0.92622486  0.46837941     0.11200
H1302       H  0.81890499  0.95210974  0.46851468     0.13200
C1303       C  0.83239480  0.01701227  0.58737713     0.19300
C1304       C  0.82175360  0.00896566  0.58697200    -0.18800
C1305       C  0.82322025  0.99582493  0.58735411    -0.11000
C1306       C  0.83543675  0.99042769  0.58791171     0.21600
C1307       C  0.84609900  0.99848417  0.58855813    -0.20400
C1308       C  0.84460617  0.01167554  0.58842431    -0.11200
C1309       C  0.83729227  0.97660641  0.58606201    -0.15400
C1310       C  0.82853008  0.96789672  0.58937210    -0.29200
C1311       C  0.83048874  0.03076292  0.58523958    -0.03500
C1312       C  0.83787727  0.03982484  0.59040855    -0.40000
H1313       H  0.81227590  0.01286581  0.58599801     0.12700
H1314       H  0.81480348  0.98994918  0.58645058     0.12400
H1315       H  0.85560684  0.99455861  0.58878221     0.11800
H1316       H  0.85301400  0.01764231  0.58845199     0.12000
H1317       H  0.84582933  0.97358708  0.58113775     0.14800
H1318       H  0.82033866  0.97060634  0.59499002     0.13500
H1319       H  0.82252654  0.03353158  0.57922678     0.11200
H1320       H  0.84535284  0.03734573  0.59711204     0.13200
C1321       C  0.77428793  0.08907902  0.58606844     0.19300
C1322       C  0.76634255  0.09677572  0.57859151    -0.18800
C1323       C  0.75307939  0.09545766  0.57908389    -0.11000
C1324       C  0.74747482  0.08630450  0.58703967     0.21600
C1325       C  0.75541202  0.07876736  0.59467192    -0.20400
C1326       C  0.76865565  0.08015677  0.59425744    -0.11200
C1327       C  0.73358161  0.08350514  0.58684354    -0.15400
C1328       C  0.72457096  0.09165134  0.58284481    -0.29200
C1329       C  0.78827052  0.08946792  0.58385259    -0.03500
C1330       C  0.79706126  0.08501296  0.59206412    -0.40000
H1331       H  0.77043134  0.10357355  0.57205252     0.12700
H1332       H  0.74733710  0.10122250  0.57280190     0.12400
H1333       H  0.75135997  0.07154253  0.60075425     0.11800
H1334       H  0.77441485  0.07377841  0.59989099     0.12000
H1335       H  0.73063791  0.07418692  0.59015267     0.14800
H1336       H  0.72704561  0.10124772  0.58007205     0.13500
H1337       H  0.79141994  0.09304408  0.57470137     0.11200
H1338       H  0.79436657  0.08199843  0.60153347     0.13200
C1339       C  0.68280215  0.01939322  0.57755782     0.19300
C1340       C  0.67785395  0.01240240  0.56734445    -0.18800
C1341       C  0.67681113  0.99923937  0.56805580    -0.11000
C1342       C  0.68073608  0.99273763  0.57905463     0.21600
C1343       C  0.68573375  0.99971044  0.58926995    -0.20400
C1344       C  0.68673124  0.01291438  0.58857831    -0.11200
C1345       C  0.68074017  0.97868871  0.57976138    -0.15400
C1346       C  0.67314421  0.97131305  0.57257722    -0.29200
C1347       C  0.68415240  0.03330352  0.57599540    -0.03500
C1348       C  0.68555246  0.04151306  0.58563754    -0.40000
H1349       H  0.67490659  0.01713722  0.55869873     0.12700
H1350       H  0.67333978  0.99421564  0.55978824     0.12400
H1351       H  0.68902274  0.99490746  0.59774845     0.11800
H1352       H  0.69091346  0.01789440  0.59654166     0.12000
H1353       H  0.68746271  0.97425784  0.58623908     0.14800
H1354       H  0.66599333  0.97546346  0.56640692     0.13500
H1355       H  0.68351422  0.03702153  0.56637828     0.11200
H1356       H  0.68569320  0.03829402  0.59542459     0.13200
C1357       C  0.76677527  0.92487474  0.57097486     0.19300
C1358       C  0.75931226  0.92833379  0.56043086    -0.18800
C1359       C  0.74601208  0.92826838  0.56106037    -0.11000
C1360       C  0.73976838  0.92479724  0.57235021     0.21600
C1361       C  0.74720053  0.92098837  0.58279154    -0.20400
C1362       C  0.76053553  0.92105614  0.58216539    -0.11200
C1363       C  0.72560078  0.92485781  0.57357937    -0.15400
C1364       C  0.71781986  0.93149355  0.56586971    -0.29200
C1365       C  0.78091319  0.92588257  0.56982198    -0.03500
C1366       C  0.78943608  0.92311525  0.57903129    -0.40000
H1367       H  0.76379626  0.93120474  0.55163964     0.12700
H1368       H  0.74074049  0.93083977  0.55261837     0.12400
H1369       H  0.74267196  0.91813256  0.59155607     0.11800
H1370       H  0.76579179  0.91825351  0.59053423     0.12000
H1371       H  0.72144669  0.91960697  0.58142525     0.14800
H1372       H  0.72169516  0.93730304  0.55831798     0.13500
H1373       H  0.78452061  0.92954245  0.56087226     0.11200
H1374       H  0.78645267  0.91934342  0.58811307     0.13200
C1375       C  0.66749681  0.91604994  0.48548738     0.19300
C1376       C  0.67689760  0.91086238  0.49346405    -0.18800
C1377       C  0.67598279  0.91192814  0.50669385    -0.11000
C1378       C  0.66557328  0.91818119  0.51220274     0.21600
C1379       C  0.65591034  0.92282806  0.50426897    -0.20400
C1380       C  0.65674647  0.92164013  0.49109846    -0.11200
C1381       C  0.66521748  0.92150424  0.52588692    -0.15400
C1382       C  0.67149000  0.91521771  0.53509514    -0.29200
C1383       C  0.66949975  0.91599667  0.47146360    -0.03500
C1384       C  0.66360708  0.92414445  0.46354966    -0.40000
H1385       H  0.68524257  0.90643306  0.48943694     0.12700
H1386       H  0.68374425  0.90844536  0.51249582     0.12400
H1387       H  0.64778844  0.92765202  0.50827339     0.11800
H1388       H  0.64898879  0.92530128  0.48542246     0.12000
H1389       H  0.65996901  0.92998863  0.52839303     0.14800
H1390       H  0.67628756  0.90636940  0.53308454     0.13500
H1391       H  0.67679241  0.90979731  0.46766675     0.11200
H1392       H  0.65681270  0.93092373  0.46716161     0.13200
C1393       C  0.76034692  0.92599252  0.42236753     0.19300
C1394       C  0.75194288  0.92529921  0.41199576    -0.18800
C1395       C  0.73881485  0.92398395  0.41389886    -0.11000
C1396       C  0.73383727  0.92351015  0.42627024     0.21600
C1397       C  0.74226332  0.92404012  0.43662675    -0.20400
C1398       C  0.75537426  0.92519048  0.43472727    -0.11200
C1399       C  0.71994846  0.92396934  0.42877137    -0.15400
C1400       C  0.71093295  0.91973214  0.42068659    -0.29200
C1401       C  0.77402535  0.92878422  0.42009352    -0.03500
C1402       C  0.78327147  0.92534719  0.42822652    -0.40000
H1403       H  0.75552712  0.92606961  0.40239566     0.12700
H1404       H  0.73257799  0.92396504  0.40569413     0.12400
H1405       H  0.73865021  0.92390131  0.44624359     0.11800
H1406       H  0.76149546  0.92607575  0.44297522     0.12000
H1407       H  0.71701476  0.92828425  0.43765297     0.14800
H1408       H  0.71352891  0.91481366  0.41204297     0.13500
H1409       H  0.77653008  0.93400447  0.41154835     0.11200
H1410       H  0.78104765  0.91946456  0.43639665     0.13200
C1411       C  0.68179024  0.08907720  0.51839351     0.19300
C1412       C  0.69088574  0.09378539  0.50982636    -0.18800
C1413       C  0.68878755  0.09319489  0.49669106    -0.11000
C1414       C  0.67756956  0.08770487  0.49181240     0.21600
C1415       C  0.66834086  0.08327432  0.50036475    -0.20400
C1416       C  0.67036275  0.08400364  0.51349903    -0.11200
C1417       C  0.67600460  0.08487675  0.47804598    -0.15400
C1418       C  0.68148701  0.09162173  0.46864956    -0.29200
C1419       C  0.68509134  0.08851153  0.53217940    -0.03500
C1420       C  0.67647677  0.08729941  0.54156233    -0.40000
H1421       H  0.69982071  0.09761462  0.51330225     0.12700
H1422       H  0.69625926  0.09640507  0.49040484     0.12400
H1423       H  0.65969551  0.07884311  0.49685694     0.11800
H1424       H  0.66323117  0.07998764  0.51969798     0.12000
H1425       H  0.67040693  0.07654237  0.47557455     0.14800
H1426       H  0.68644406  0.10042358  0.47073200     0.13500
H1427       H  0.69513259  0.08892640  0.53469103     0.11200
H1428       H  0.66636736  0.08743781  0.53945429     0.13200
C1429       C  0.67444383  0.99053629  0.42579993     0.19300
C1430       C  0.66953746  0.99832096  0.43536502    -0.18800
C1431       C  0.67188247  0.01133246  0.43532916    -0.11000
C1432       C  0.67907360  0.01692968  0.42556457     0.21600
C1433       C  0.68405304  0.00917599  0.41601411    -0.20400
C1434       C  0.68170720  0.99612936  0.41604286    -0.11200
C1435       C  0.68185514  0.03071554  0.42524174    -0.15400
C1436       C  0.67474007  0.03933597  0.43130753    -0.29200
C1437       C  0.67192250  0.97669242  0.42667758    -0.03500
C1438       C  0.67766688  0.96791847  0.41949856    -0.40000
H1439       H  0.66401944  0.99429019  0.44304656     0.12700
H1440       H  0.66825003  0.01685596  0.44313951     0.12400
H1441       H  0.68969216  0.01324549  0.40843560     0.11800
H1442       H  0.68557917  0.99061771  0.40836237     0.12000
H1443       H  0.68993874  0.03390282  0.41964333     0.14800
H1444       H  0.66631831  0.03653488  0.43653903     0.13500
H1445       H  0.66540909  0.97350529  0.43402448     0.11200
H1446       H  0.68437873  0.97053851  0.41217879     0.13200
C1447       C  0.77103128  0.08745006  0.42212548     0.19300
C1448       C  0.76320871  0.07802444  0.41680081    -0.18800
C1449       C  0.74996091  0.07865261  0.41791186    -0.11000
C1450       C  0.74420710  0.08885184  0.42423032     0.21600
C1451       C  0.75195719  0.09864939  0.42894177    -0.20400
C1452       C  0.76525466  0.09792508  0.42800798    -0.11200
C1453       C  0.73016699  0.08937916  0.42596500    -0.15400
C1454       C  0.72331536  0.07888603  0.42847766    -0.29200
C1455       C  0.78511066  0.08589063  0.42145934    -0.03500
C1456       C  0.79321789  0.09064727  0.43019134    -0.40000
H1457       H  0.76737888  0.06996743  0.41203485     0.12700
H1458       H  0.74422043  0.07114948  0.41380643     0.12400
H1459       H  0.74772841  0.10671482  0.43363863     0.11800
H1460       H  0.77095231  0.10557997  0.43185743     0.12000
H1461       H  0.72550394  0.09855043  0.42576000     0.14800
H1462       H  0.72814241  0.06986160  0.42955646     0.13500
H1463       H  0.78882905  0.07965276  0.41417017     0.11200
H1464       H  0.78964300  0.09622574  0.43803721     0.13200
C1465       C  0.86413135  0.89881109  0.40987539     0.19300
C1466       C  0.87725506  0.90044611  0.40802191    -0.18800
C1467       C  0.88536782  0.88998397  0.40737367    -0.11000
C1468       C  0.88050621  0.87758278  0.40864692     0.21600
C1469       C  0.86733994  0.87596256  0.41029463    -0.20400
C1470       C  0.85922980  0.88642169  0.41088894    -0.11200
C1471       C  0.88886278  0.86623717  0.40961362    -0.15400
C1472       C  0.90123064  0.86610417  0.40631806    -0.29200
C1473       C  0.85610353  0.91015997  0.41212786    -0.03500
C1474       C  0.84339395  0.91026325  0.41052139    -0.40000
H1475       H  0.88130013  0.90988195  0.40741437     0.12700
H1476       H  0.89545687  0.89177417  0.40644702     0.12400
H1477       H  0.86334536  0.86656730  0.41150058     0.11800
H1478       H  0.84924408  0.88474136  0.41274299     0.12000
H1479       H  0.88476173  0.85774470  0.41381237     0.14800
H1480       H  0.90561272  0.87424894  0.40181164     0.13500
H1481       H  0.86081398  0.91862905  0.41571237     0.11200
H1482       H  0.83852753  0.90217782  0.40635540     0.13200
C1483       C  0.98639631  0.83309107  0.41938847     0.19300
C1484       C  0.99390455  0.83484739  0.43028844    -0.18800
C1485       C  0.00714126  0.83384091  0.42973016    -0.11000
C1486       C  0.01321179  0.83098954  0.41820448     0.21600
C1487       C  0.00569131  0.82905052  0.40731186    -0.20400
C1488       C  0.99240790  0.83017741  0.40785165    -0.11200
C1489       C  0.02726317  0.82934171  0.41746502    -0.15400
C1490       C  0.03541051  0.83520030  0.42544468    -0.29200
C1491       C  0.97234483  0.83355613  0.42072549    -0.03500
C1492       C  0.96421120  0.83629742  0.41121896    -0.40000
H1493       H  0.98949293  0.83690012  0.43932901     0.12700
H1494       H  0.01251922  0.83493813  0.43843524     0.12400
H1495       H  0.01010709  0.82663021  0.39837736     0.11800
H1496       H  0.98689008  0.82840194  0.39933477     0.12000
H1497       H  0.03100024  0.82319307  0.41011554     0.14800
H1498       H  0.03188733  0.84184731  0.43242592     0.13500
H1499       H  0.96853569  0.83196969  0.43017995     0.11200
H1500       H  0.96769322  0.83871467  0.40183570     0.13200
C1501       C  0.07933673  0.82756363  0.48886960     0.19300
C1502       C  0.08422072  0.83747562  0.49635551    -0.18800
C1503       C  0.08355302  0.83699228  0.50960664    -0.11000
C1504       C  0.07795160  0.82652347  0.51571718     0.21600
C1505       C  0.07329154  0.81649064  0.50827921    -0.20400
C1506       C  0.07394618  0.81697068  0.49502589    -0.11200
C1507       C  0.07725895  0.82540293  0.52976765    -0.15400
C1508       C  0.07808597  0.83527213  0.53782036    -0.29200
C1509       C  0.08013451  0.82877432  0.47477182    -0.03500
C1510       C  0.07412847  0.82107832  0.46648578    -0.40000
H1511       H  0.08856622  0.84567322  0.49192795     0.12700
H1512       H  0.08764455  0.84474249  0.51496779     0.12400
H1513       H  0.06910081  0.80822856  0.51274601     0.11800
H1514       H  0.07031747  0.80894215  0.48978013     0.12000
H1515       H  0.07568978  0.81598208  0.53365433     0.14800
H1516       H  0.07904072  0.84488989  0.53432153     0.13500
H1517       H  0.08556446  0.83671654  0.47102230     0.11200
H1518       H  0.06832925  0.81323240  0.46974217     0.13200
C1519       C  0.86892142  0.88849165  0.58636101     0.19300
C1520       C  0.86717347  0.87530286  0.58580833    -0.18800
C1521       C  0.87760090  0.86710087  0.58537754    -0.11000
C1522       C  0.89013053  0.87190214  0.58547708     0.21600
C1523       C  0.89189740  0.88507230  0.58637871    -0.20400
C1524       C  0.88145985  0.89328391  0.58682315    -0.11200
C1525       C  0.90145005  0.86373542  0.58312100    -0.15400
C1526       C  0.90137930  0.85098653  0.58394618    -0.29200
C1527       C  0.85746347  0.89677459  0.58527006    -0.03500
C1528       C  0.85750085  0.90941532  0.58705286    -0.40000
H1529       H  0.85766996  0.87132059  0.58530864     0.12700
H1530       H  0.87570114  0.85708113  0.58435465     0.12400
H1531       H  0.90140596  0.88906469  0.58631870     0.11800
H1532       H  0.88336828  0.90335035  0.58699326     0.12000
H1533       H  0.91002540  0.86842656  0.57973583     0.14800
H1534       H  0.89316766  0.84597536  0.58765522     0.13500
H1535       H  0.84862683  0.89227116  0.58226899     0.11200
H1536       H  0.86602534  0.91430677  0.59020790     0.13200
C1537       C  0.92026041  0.83869733  0.47896735     0.19300
C1538       C  0.91140417  0.83209675  0.48645038    -0.18800
C1539       C  0.91216739  0.83242151  0.49970946    -0.11000
C1540       C  0.92192745  0.83933574  0.50578941     0.21600
C1541       C  0.93057137  0.84619795  0.49828005    -0.20400
C1542       C  0.92980048  0.84587446  0.48504235    -0.11200
C1543       C  0.92415383  0.83904159  0.51975594    -0.15400
C1544       C  0.91682078  0.83291639  0.52826136    -0.29200
C1545       C  0.91975936  0.83709206  0.46495671    -0.03500
C1546       C  0.92537020  0.84500343  0.45663419    -0.40000
H1547       H  0.90399241  0.82646242  0.48201077     0.12700
H1548       H  0.90529525  0.82694670  0.50501292     0.12400
H1549       H  0.93822050  0.85155072  0.50266559     0.11800
H1550       H  0.93700877  0.85086278  0.47968347     0.12000
H1551       H  0.93269986  0.84378379  0.52319719     0.14800
H1552       H  0.90804597  0.82824413  0.52548797     0.13500
H1553       H  0.91447812  0.82898141  0.46132390     0.11200
H1554       H  0.93021010  0.85352205  0.45983119     0.13200
C1555       C  0.01484480  0.83435190  0.57694591     0.19300
C1556       C  0.00718689  0.83935492  0.56724337    -0.18800
C1557       C  0.99392793  0.83914861  0.56822752    -0.11000
C1558       C  0.98799128  0.83376258  0.57892855     0.21600
C1559       C  0.99566732  0.82857375  0.58855747    -0.20400
C1560       C  0.00897542  0.82894954  0.58764604    -0.11200
C1561       C  0.97389883  0.83236853  0.57969885    -0.15400
C1562       C  0.96578705  0.83993595  0.57335317    -0.29200
C1563       C  0.02882224  0.83399017  0.57505023    -0.03500
C1564       C  0.03744134  0.83450477  0.58453867    -0.40000
H1565       H  0.01149008  0.84332357  0.55878681     0.12700
H1566       H  0.98840423  0.84277226  0.56034205     0.12400
H1567       H  0.99134584  0.82410156  0.59674216     0.11800
H1568       H  0.01462230  0.82463473  0.59509785     0.12000
H1569       H  0.97012281  0.82446406  0.58515921     0.14800
H1570       H  0.96934346  0.84807859  0.56813475     0.13500
H1571       H  0.03215568  0.83351555  0.56530768     0.11200
H1572       H  0.03441790  0.83569736  0.59430006     0.13200
C1573       C  0.08040911  0.74308127  0.57931635     0.19300
C1574       C  0.07304625  0.75088198  0.58715092    -0.18800
C1575       C  0.07476137  0.76401179  0.58716432    -0.11000
C1576       C  0.08393023  0.76971294  0.57927960     0.21600
C1577       C  0.09142077  0.76189750  0.57153904    -0.20400
C1578       C  0.08972753  0.74871866  0.57156024    -0.11200
C1579       C  0.08505796  0.78372974  0.57792483    -0.15400
C1580       C  0.08030595  0.79211807  0.58628535    -0.29200
C1581       C  0.07730446  0.72932529  0.57892144    -0.03500
C1582       C  0.08492101  0.72024963  0.57421398    -0.40000
H1583       H  0.06570651  0.74681877  0.59310864     0.12700
H1584       H  0.06848880  0.76961140  0.59298992     0.12400
H1585       H  0.09841471  0.76603143  0.56523029     0.11800
H1586       H  0.09540370  0.74310043  0.56515953     0.12000
H1587       H  0.08951155  0.78729492  0.56932217     0.14800
H1588       H  0.07616811  0.78896197  0.59516082     0.13500
H1589       H  0.06816737  0.72650126  0.58286855     0.11200
H1590       H  0.09436857  0.72249638  0.57072828     0.13200
C1591       C  0.01208662  0.67155965  0.57628516     0.19300
C1592       C  0.00480757  0.66602284  0.56654994    -0.18800
C1593       C  0.99152275  0.66699053  0.56647791    -0.11000
C1594       C  0.98518877  0.67341385  0.57629607     0.21600
C1595       C  0.99245458  0.67849342  0.58630368    -0.20400
C1596       C  0.00573458  0.67753506  0.58636200    -0.11200
C1597       C  0.97122909  0.67586228  0.57605996    -0.15400
C1598       C  0.96283987  0.66984800  0.56844390    -0.29200
C1599       C  0.02622297  0.67124734  0.57533822    -0.03500
C1600       C  0.03386362  0.67990863  0.58086005    -0.40000
H1601       H  0.00944870  0.66131470  0.55870688     0.12700
H1602       H  0.98639421  0.66309718  0.55846908     0.12400
H1603       H  0.98784618  0.68341027  0.59403178     0.11800
H1604       H  0.01093995  0.68155041  0.59427738     0.12000
H1605       H  0.96770802  0.68317701  0.58237774     0.14800
H1606       H  0.96580885  0.66213151  0.56238271     0.13500
H1607       H  0.03041583  0.66430892  0.56900676     0.11200
H1608       H  0.02988758  0.68738097  0.58666072     0.13200
C1609       C  0.92704578  0.76841083  0.57443812     0.19300
C1610       C  0.91684262  0.76088023  0.57866437    -0.18800
C1611       C  0.91728467  0.74762299  0.57772430    -0.11000
C1612       C  0.92806304  0.74158714  0.57261788     0.21600
C1613       C  0.93837881  0.74915031  0.56873916    -0.20400
C1614       C  0.93791742  0.76235055  0.56965188    -0.11200
C1615       C  0.92915232  0.72756446  0.57103573    -0.15400
C1616       C  0.91989216  0.71902826  0.57348798    -0.29200
C1617       C  0.92613245  0.78250605  0.57516388    -0.03500
C1618       C  0.93239696  0.79023492  0.56712277    -0.40000
H1619       H  0.90840941  0.76528200  0.58252116     0.12700
H1620       H  0.90915274  0.74226548  0.58099938     0.12400
H1621       H  0.94687190  0.74482668  0.56491974     0.11800
H1622       H  0.94617858  0.76774366  0.56671123     0.12000
H1623       H  0.93813759  0.72406290  0.56737561     0.14800
H1624       H  0.91073764  0.72193633  0.57713789     0.13500
H1625       H  0.91956239  0.78659861  0.58196098     0.11200
H1626       H  0.93825650  0.78623858  0.55967690     0.13200
C1627       C  0.07327476  0.67866912  0.48548575     0.19300
C1628       C  0.08328856  0.67419787  0.49311363    -0.18800
C1629       C  0.08252501  0.67474602  0.50638207    -0.11000
C1630       C  0.07157466  0.67961764  0.51228599     0.21600
C1631       C  0.06144905  0.68376216  0.50460830    -0.20400
C1632       C  0.06223542  0.68325171  0.49139381    -0.11200
C1633       C  0.07025675  0.68095880  0.52629207    -0.15400
C1634       C  0.07826204  0.67610637  0.53504729    -0.29200
C1635       C  0.07451545  0.67830725  0.47143166    -0.03500
C1636       C  0.06854001  0.68659729  0.46377049    -0.40000
H1637       H  0.09184338  0.67052073  0.48878539     0.12700
H1638       H  0.09061569  0.67153979  0.51186199     0.12400
H1639       H  0.05285513  0.68745133  0.50885645     0.11800
H1640       H  0.05411885  0.68634936  0.48586433     0.12000
H1641       H  0.06209004  0.68630534  0.52960458     0.14800
H1642       H  0.08646170  0.67055158  0.53232455     0.13500
H1643       H  0.08081915  0.67129841  0.46731075     0.11200
H1644       H  0.06270648  0.69404477  0.46777276     0.13200
C1645       C  0.08615578  0.76934225  0.41437425     0.19300
C1646       C  0.09401664  0.76099079  0.42119975    -0.18800
C1647       C  0.09286057  0.74785427  0.41973169    -0.11000
C1648       C  0.08371413  0.74271123  0.41137529     0.21600
C1649       C  0.07622842  0.75108326  0.40414488    -0.20400
C1650       C  0.07738839  0.76422452  0.40561613    -0.11200
C1651       C  0.08053409  0.72891447  0.41095017    -0.15400
C1652       C  0.08696079  0.71970900  0.41711648    -0.29200
C1653       C  0.08651263  0.78306976  0.41774647    -0.03500
C1654       C  0.08093158  0.79241497  0.41100716    -0.40000
H1655       H  0.10080490  0.76463722  0.42806142     0.12700
H1656       H  0.09877339  0.74188114  0.42561756     0.12400
H1657       H  0.06904915  0.74743576  0.39769534     0.11800
H1658       H  0.07095975  0.77022147  0.40030990     0.12000
H1659       H  0.07177820  0.72633142  0.40605601     0.14800
H1660       H  0.09589774  0.72166517  0.42189050     0.13500
H1661       H  0.09113808  0.78552066  0.42666034     0.11200
H1662       H  0.07650791  0.79050663  0.40189558     0.13200
C1663       C  0.91603728  0.67952897  0.50572236     0.19300
C1664       C  0.92343225  0.67334820  0.49657902    -0.18800
C1665       C  0.92137982  0.67545344  0.48363161    -0.11000
C1666       C  0.91187962  0.68388858  0.47948917     0.21600
C1667       C  0.90435365  0.68995701  0.48861676    -0.20400
C1668       C  0.90634014  0.68776303  0.50160085    -0.11200
C1669       C  0.91058370  0.68754851  0.46589044    -0.15400
C1670       C  0.91428078  0.68004543  0.45628255    -0.29200
C1671       C  0.91960175  0.67805841  0.51933658    -0.03500
C1672       C  0.91182352  0.68058623  0.52912724    -0.40000
H1673       H  0.93106726  0.66710916  0.49947407     0.12700
H1674       H  0.92768865  0.67090623  0.47695750     0.12400
H1675       H  0.89712117  0.69664834  0.48569631     0.11800
H1676       H  0.90064623  0.69297826  0.50833454     0.12000
H1677       H  0.90700469  0.69697172  0.46376632     0.14800
H1678       H  0.91736912  0.67042113  0.45815890     0.13500
H1679       H  0.92921846  0.67484002  0.52138665     0.11200
H1680       H  0.90197955  0.68322470  0.52747242     0.13200
C1681       C  0.00878212  0.68802626  0.41902993     0.19300
C1682       C  0.00165828  0.69917700  0.42023028    -0.18800
C1683       C  0.98836580  0.69873804  0.42051961    -0.11000
C1684       C  0.98189101  0.68707858  0.41957687     0.21600
C1685       C  0.98899741  0.67593448  0.41830657    -0.20400
C1686       C  0.00229881  0.67636696  0.41805305    -0.11200
C1687       C  0.96778744  0.68626023  0.41903026    -0.15400
C1688       C  0.96008846  0.69509519  0.42396552    -0.29200
C1689       C  0.02288435  0.68905972  0.41853398    -0.03500
C1690       C  0.03080811  0.67939466  0.42106244    -0.40000
H1691       H  0.00639508  0.70828525  0.42087186     0.12700
H1692       H  0.98324368  0.70758399  0.42109595     0.12400
H1693       H  0.98423204  0.66686665  0.41738513     0.11800
H1694       H  0.00737471  0.66757709  0.41676617     0.12000
H1695       H  0.96358428  0.67799657  0.41448101     0.14800
H1696       H  0.96398830  0.70308331  0.42917477     0.13500
H1697       H  0.02693063  0.69837924  0.41671474     0.11200
H1698       H  0.02715320  0.67014604  0.42368202     0.13200
C1699       C  0.91100384  0.77893959  0.41077858     0.19300
C1700       C  0.90453843  0.77108634  0.41941235    -0.18800
C1701       C  0.90500108  0.75789872  0.41828657    -0.11000
C1702       C  0.91202577  0.75226685  0.40848308     0.21600
C1703       C  0.91814576  0.76009809  0.39960681    -0.20400
C1704       C  0.91762527  0.77328937  0.40068238    -0.11200
C1705       C  0.91460105  0.73845580  0.40821548    -0.15400
C1706       C  0.90713509  0.72962175  0.41368335    -0.29200
C1707       C  0.91173350  0.79274964  0.41351654    -0.03500
C1708       C  0.91600774  0.80160520  0.40534041    -0.40000
H1709       H  0.89948552  0.77516081  0.42735108     0.12700
H1710       H  0.90044466  0.75219854  0.42551239     0.12400
H1711       H  0.92374582  0.75598261  0.39206265     0.11800
H1712       H  0.92296811  0.77889736  0.39395921     0.12000
H1713       H  0.92341709  0.73549703  0.40374947     0.14800
H1714       H  0.89797530  0.73213606  0.41766254     0.13500
H1715       H  0.90913472  0.79569714  0.42304119     0.11200
H1716       H  0.91833651  0.79921408  0.39562782     0.13200
C1717       C  0.87434211  0.12251320  0.41893851     0.19300
C1718       C  0.88766621  0.12159540  0.41983177    -0.18800
C1719       C  0.89541743  0.13241349  0.41903158    -0.11000
C1720       C  0.88999732  0.14449060  0.41742454     0.21600
C1721       C  0.87670436  0.14538260  0.41620826    -0.20400
C1722       C  0.86895770  0.13454789  0.41688003    -0.11200
C1723       C  0.89771900  0.15636241  0.41849310    -0.15400
C1724       C  0.91026063  0.15707267  0.41590073    -0.29200
C1725       C  0.86642622  0.11099639  0.42153555    -0.03500
C1726       C  0.85404484  0.10973730  0.41828517    -0.40000
H1727       H  0.89209057  0.11249519  0.42155071     0.12700
H1728       H  0.90557595  0.13132479  0.42034437     0.12400
H1729       H  0.87225983  0.15455492  0.41511524     0.11800
H1730       H  0.85875081  0.13577863  0.41642637     0.12000
H1731       H  0.89292852  0.16477347  0.42196009     0.14800
H1732       H  0.91511384  0.14899763  0.41182366     0.13500
H1733       H  0.87097611  0.10327672  0.42666042     0.11200
H1734       H  0.84936575  0.11696316  0.41263066     0.13200
C1735       C  0.02128400  0.18313937  0.42203459     0.19300
C1736       C  0.01337766  0.17708622  0.43087161    -0.18800
C1737       C  0.00015914  0.17817438  0.43007560    -0.11000
C1738       C  0.99445903  0.18538004  0.42035068     0.21600
C1739       C  0.00237422  0.19147190  0.41148619    -0.20400
C1740       C  0.01565987  0.19032853  0.41225888    -0.11200
C1741       C  0.98040800  0.18730008  0.41966405    -0.15400
C1742       C  0.97196733  0.17941611  0.42519306    -0.29200
C1743       C  0.03527193  0.18251799  0.42409556    -0.03500
C1744       C  0.04406670  0.18448222  0.41504619    -0.40000
H1745       H  0.01746248  0.17165572  0.43859436     0.12700
H1746       H  0.99454250  0.17369138  0.43739867     0.12400
H1747       H  0.99826913  0.19723653  0.40402183     0.11800
H1748       H  0.02145561  0.19542108  0.40547052     0.12000
H1749       H  0.97690519  0.19551467  0.41450512     0.14800
H1750       H  0.97516907  0.17091248  0.42999710     0.13500
H1751       H  0.03848706  0.18017770  0.43363305     0.11200
H1752       H  0.04125900  0.18626213  0.40528748     0.13200
C1753       C  0.08977866  0.24558751  0.42077113     0.19300
C1754       C  0.09429272  0.25377032  0.43028240    -0.18800
C1755       C  0.09332462  0.26691392  0.42891692    -0.11000
C1756       C  0.08769039  0.27219839  0.41799145     0.21600
C1757       C  0.08353423  0.26402041  0.40829299    -0.20400
C1758       C  0.08461449  0.25085573  0.40961366    -0.11200
C1759       C  0.08457412  0.28593492  0.41711151    -0.15400
C1760       C  0.09050956  0.29502857  0.42391201    -0.29200
C1761       C  0.08931779  0.23175993  0.42348075    -0.03500
C1762       C  0.08865893  0.22268453  0.41453637    -0.40000
H1763       H  0.09819876  0.24996163  0.43901640     0.12700
H1764       H  0.09635169  0.27281172  0.43676186     0.12400
H1765       H  0.07903218  0.26781612  0.39985211     0.11800
H1766       H  0.08076941  0.24487416  0.40218441     0.12000
H1767       H  0.07664956  0.28858085  0.41100804     0.14800
H1768       H  0.09882032  0.29279180  0.42961836     0.13500
H1769       H  0.08939955  0.22892337  0.43341506     0.11200
H1770       H  0.08933632  0.22508211  0.40453737     0.13200
C1771       C  0.91911052  0.24472040  0.41674347     0.19300
C1772       C  0.91047796  0.25275926  0.42288790    -0.18800
C1773       C  0.91135184  0.26593352  0.42152361    -0.11000
C1774       C  0.92102055  0.27137557  0.41407039     0.21600
C1775       C  0.92943678  0.26333332  0.40764535    -0.20400
C1776       C  0.92848095  0.25015897  0.40890472    -0.11200
C1777       C  0.92369756  0.28522834  0.41416079    -0.15400
C1778       C  0.91506433  0.29419626  0.41697935    -0.29200
C1779       C  0.91905066  0.23097919  0.41999438    -0.03500
C1780       C  0.92441722  0.22190575  0.41282035    -0.40000
H1781       H  0.90329256  0.24884494  0.42912163     0.12700
H1782       H  0.90489790  0.27179783  0.42689764     0.12400
H1783       H  0.93707451  0.26727552  0.40199824     0.11800
H1784       H  0.93555281  0.24435170  0.40428023     0.12000
H1785       H  0.93345735  0.28813564  0.41229619     0.14800
H1786       H  0.90509499  0.29175040  0.41818015     0.13500
H1787       H  0.91488697  0.22831053  0.42905124     0.11200
H1788       H  0.92819049  0.22415307  0.40350803     0.13200
C1789       C  0.01471697  0.33786401  0.42204205     0.19300
C1790       C  0.00688195  0.34397538  0.43088338    -0.18800
C1791       C  0.99363623  0.34253003  0.43040572    -0.11000
C1792       C  0.98789782  0.33501167  0.42093498     0.21600
C1793       C  0.99571026  0.32912599  0.41194052    -0.20400
C1794       C  0.00894019  0.33060861  0.41238633    -0.11200
C1795       C  0.97392932  0.33259877  0.42037064    -0.15400
C1796       C  0.96515149  0.33997703  0.42594244    -0.29200
C1797       C  0.02878994  0.33898593  0.42355314    -0.03500
C1798       C  0.03719055  0.33108703  0.41810483    -0.40000
H1799       H  0.01104427  0.34962401  0.43841741     0.12700
H1800       H  0.98803149  0.34701920  0.43769941     0.12400
H1801       H  0.99155519  0.32332730  0.40452449     0.11800
H1802       H  0.01450270  0.32601734  0.40513476     0.12000
H1803       H  0.97071400  0.32445049  0.41491266     0.14800
H1804       H  0.96794039  0.34846304  0.43103821     0.13500
H1805       H  0.03234716  0.34607100  0.43017261     0.11200
H1806       H  0.03405497  0.32362447  0.41176758     0.13200
C1807       C  0.92398468  0.33145529  0.48648620     0.19300
C1808       C  0.93380332  0.32723193  0.49448368    -0.18800
C1809       C  0.93294188  0.32842428  0.50764225    -0.11000
C1810       C  0.92223258  0.33406675  0.51329433     0.21600
C1811       C  0.91228450  0.33816591  0.50533590    -0.20400
C1812       C  0.91313124  0.33691946  0.49207766    -0.11200
C1813       C  0.92097575  0.33510494  0.52741279    -0.15400
C1814       C  0.93113920  0.33465246  0.53523423    -0.29200
C1815       C  0.92566986  0.32976615  0.47250581    -0.03500
C1816       C  0.91778497  0.33419433  0.46341564    -0.40000
H1817       H  0.94221146  0.32284917  0.49053485     0.12700
H1818       H  0.94061563  0.32455230  0.51327917     0.12400
H1819       H  0.90382766  0.34234535  0.50938940     0.11800
H1820       H  0.90522255  0.34016757  0.48636057     0.12000
H1821       H  0.91150517  0.33590751  0.53145143     0.14800
H1822       H  0.94065882  0.33432047  0.53132158     0.13500
H1823       H  0.93418845  0.32479952  0.46948992     0.11200
H1824       H  0.90925883  0.33938367  0.46584190     0.13200
C1825       C  0.99123938  0.33971234  0.58093617     0.19300
C1826       C  0.99941889  0.34776636  0.57414699    -0.18800
C1827       C  0.01262659  0.34630905  0.57494079    -0.11000
C1828       C  0.01794101  0.33672304  0.58260454     0.21600
C1829       C  0.00976795  0.32886846  0.58959068    -0.20400
C1830       C  0.99659111  0.33030227  0.58877883    -0.11200
C1831       C  0.03179111  0.33391600  0.58286977    -0.15400
C1832       C  0.04081214  0.34196158  0.57874946    -0.29200
C1833       C  0.97730158  0.34055270  0.57859185    -0.03500
C1834       C  0.96852843  0.33479769  0.58589220    -0.40000
H1835       H  0.99556948  0.35497451  0.56790887     0.12700
H1836       H  0.01850715  0.35238888  0.56912520     0.12400
H1837       H  0.01358168  0.32134222  0.59545502     0.11800
H1838       H  0.99074895  0.32360898  0.59390213     0.12000
H1839       H  0.03468635  0.32474080  0.58655763     0.14800
H1840       H  0.03839775  0.35140148  0.57552767     0.13500
H1841       H  0.97418207  0.34559882  0.57013543     0.11200
H1842       H  0.97118146  0.33006529  0.59462356     0.13200
C1843       C  0.08035395  0.33693956  0.51599638     0.19300
C1844       C  0.06944504  0.33666979  0.50825156    -0.18800
C1845       C  0.07039381  0.33743419  0.49505208    -0.11000
C1846       C  0.08235859  0.33828719  0.48913624     0.21600
C1847       C  0.09329492  0.33896740  0.49685828    -0.20400
C1848       C  0.09234089  0.33823660  0.51015210    -0.11200
C1849       C  0.08359913  0.33841263  0.47499571    -0.15400
C1850       C  0.07493880  0.33276635  0.46738766    -0.29200
C1851       C  0.07858123  0.33532794  0.52996994    -0.03500
C1852       C  0.08748805  0.33751120  0.53898043    -0.40000
H1853       H  0.06007671  0.33581752  0.51243953     0.12700
H1854       H  0.06167728  0.33741299  0.48954448     0.12400
H1855       H  0.10262518  0.33974215  0.49258008     0.11800
H1856       H  0.10101339  0.33838561  0.51571814     0.12000
H1857       H  0.09202584  0.34269160  0.47081596     0.14800
H1858       H  0.06695642  0.32773394  0.47155184     0.13500
H1859       H  0.06917232  0.33230875  0.53304731     0.11200
H1860       H  0.09687297  0.34099889  0.53648507     0.13200
C1861       C  0.08349274  0.17842595  0.48486814     0.19300
C1862       C  0.07287628  0.18025504  0.49267931    -0.18800
C1863       C  0.07423196  0.18066175  0.50586070    -0.11000
C1864       C  0.08627004  0.17914724  0.51154063     0.21600
C1865       C  0.09684090  0.17688563  0.50377558    -0.20400
C1866       C  0.09550488  0.17659389  0.49054899    -0.11200
C1867       C  0.08792978  0.17940002  0.52553438    -0.15400
C1868       C  0.08053619  0.18645087  0.53312067    -0.29200
C1869       C  0.08152143  0.17835433  0.47090393    -0.03500
C1870       C  0.09068020  0.18119505  0.46246994    -0.40000
H1871       H  0.06350011  0.18148899  0.48856079     0.12700
H1872       H  0.06579558  0.18195193  0.51157488     0.12400
H1873       H  0.10616029  0.17545108  0.50795147     0.11800
H1874       H  0.10384782  0.17475351  0.48486457     0.12000
H1875       H  0.09562676  0.17389211  0.52966711     0.14800
H1876       H  0.07335327  0.19263310  0.52906246     0.13500
H1877       H  0.07188144  0.17673188  0.46745772     0.11200
H1878       H  0.10024428  0.18355496  0.46560839     0.13200
C1879       C  0.08580751  0.27180824  0.58312213     0.19300
C1880       C  0.07769471  0.26308116  0.58913787    -0.18800
C1881       C  0.07979855  0.25003389  0.58816285    -0.11000
C1882       C  0.09004380  0.24537765  0.58100616     0.21600
C1883       C  0.09827288  0.25409977  0.57513372    -0.20400
C1884       C  0.09623429  0.26716591  0.57620380    -0.11200
C1885       C  0.09146851  0.23162724  0.57820470    -0.15400
C1886       C  0.08661830  0.22229921  0.58549698    -0.29200
C1887       C  0.08241134  0.28550863  0.58336775    -0.03500
C1888       C  0.09068852  0.29503088  0.58109938    -0.40000
H1889       H  0.06950137  0.26636647  0.59437790     0.12700
H1890       H  0.07300041  0.24365899  0.59251386     0.12400
H1891       H  0.10611290  0.25077855  0.56939516     0.11800
H1892       H  0.10251781  0.27352264  0.57112722     0.12000
H1893       H  0.09626004  0.22911276  0.56943468     0.14800
H1894       H  0.08240874  0.22444721  0.59463238     0.13500
H1895       H  0.07256079  0.28784405  0.58542200     0.11200
H1896       H  0.10069752  0.29308105  0.57959073     0.13200
C1897       C  0.87584469  0.12068648  0.59279876     0.19300
C1898       C  0.87368813  0.13352958  0.59553896    -0.18800
C1899       C  0.88363815  0.14240768  0.59514694    -0.11000
C1900       C  0.89605564  0.13864616  0.59191464     0.21600
C1901       C  0.89831705  0.12574975  0.58966032    -0.20400
C1902       C  0.88838938  0.11688227  0.59004674    -0.11200
C1903       C  0.90686854  0.14774699  0.59042588    -0.15400
C1904       C  0.90548510  0.16032761  0.58874851    -0.29200
C1905       C  0.86465009  0.11187621  0.59225898    -0.03500
C1906       C  0.86536891  0.09943284  0.58953892    -0.40000
H1907       H  0.86419394  0.13677130  0.59779683     0.12700
H1908       H  0.88148344  0.15216100  0.59733570     0.12400
H1909       H  0.90778280  0.12254081  0.58724752     0.11800
H1910       H  0.89070742  0.10716356  0.58789555     0.12000
H1911       H  0.91635877  0.14376888  0.58966441     0.14800
H1912       H  0.89614104  0.16461590  0.58884810     0.13500
H1913       H  0.85525692  0.11599592  0.59348225     0.11200
H1914       H  0.87447421  0.09487656  0.58812929     0.13200
C1915       C  0.92999651  0.18221857  0.48880391     0.19300
C1916       C  0.93160726  0.17128126  0.49620098    -0.18800
C1917       C  0.93266819  0.17213400  0.50942008    -0.11000
C1918       C  0.93190975  0.18399230  0.51550119     0.21600
C1919       C  0.92997466  0.19486280  0.50806300    -0.20400
C1920       C  0.92897600  0.19400692  0.49488286    -0.11200
C1921       C  0.93336491  0.18564620  0.52945316    -0.15400
C1922       C  0.93295204  0.17616384  0.53798696    -0.29200
C1923       C  0.92936640  0.18108756  0.47479669    -0.03500
C1924       C  0.93353605  0.19031531  0.46704049    -0.40000
H1925       H  0.93235071  0.16208956  0.49171363     0.12700
H1926       H  0.93432890  0.16351381  0.51470030     0.12400
H1927       H  0.92924270  0.20409220  0.51247094     0.11800
H1928       H  0.92730553  0.20258892  0.48950352     0.12000
H1929       H  0.93454209  0.19527761  0.53291507     0.14800
H1930       H  0.93136054  0.16645222  0.53507148     0.13500
H1931       H  0.92602135  0.17219400  0.47077070     0.11200
H1932       H  0.93776498  0.19888462  0.47090950     0.13200
C1933       C  0.92630610  0.27005263  0.58215898     0.19300
C1934       C  0.93454871  0.26242546  0.58938629    -0.18800
C1935       C  0.93359574  0.24919639  0.58908912    -0.11000
C1936       C  0.92432067  0.24317747  0.58150190     0.21600
C1937       C  0.91584549  0.25079510  0.57451800    -0.20400
C1938       C  0.91678546  0.26405939  0.57483224    -0.11200
C1939       C  0.92404133  0.22914526  0.57957097    -0.15400
C1940       C  0.93004226  0.22070625  0.58712683    -0.29200
C1941       C  0.92866486  0.28404158  0.58195935    -0.03500
C1942       C  0.92080343  0.29276514  0.57682805    -0.40000
H1943       H  0.94202206  0.26671832  0.59505868     0.12700
H1944       H  0.94054113  0.24380020  0.59440246     0.12400
H1945       H  0.90867565  0.24645531  0.56850088     0.11800
H1946       H  0.91031979  0.26946348  0.56896187     0.12000
H1947       H  0.91907292  0.22564916  0.57120339     0.14800
H1948       H  0.93460422  0.22372810  0.59586271     0.13500
H1949       H  0.93753222  0.28733457  0.58618368     0.11200
H1950       H  0.91167616  0.29003460  0.57285584     0.13200
C1951       C  0.02313855  0.17728009  0.58360437     0.19300
C1952       C  0.01502255  0.18136832  0.59334913    -0.18800
C1953       C  0.00173604  0.18079453  0.59187209    -0.11000
C1954       C  0.99630603  0.17626833  0.58050155     0.21600
C1955       C  0.00441425  0.17206108  0.57085375    -0.20400
C1956       C  0.01763420  0.17250736  0.57236904    -0.11200
C1957       C  0.98241476  0.17698731  0.57773369    -0.15400
C1958       C  0.97320545  0.17695059  0.58659005    -0.29200
C1959       C  0.03716922  0.17934554  0.58480705    -0.03500
C1960       C  0.04579104  0.17291567  0.57793290    -0.40000
H1961       H  0.01897833  0.18528623  0.60200718     0.12700
H1962       H  0.99579397  0.18442957  0.59939713     0.12400
H1963       H  0.00049918  0.16870946  0.56194083     0.11800
H1964       H  0.02345728  0.16966987  0.56443015     0.12000
H1965       H  0.97964201  0.17757494  0.56779472     0.14800
H1966       H  0.97556202  0.17568961  0.59655335     0.13500
H1967       H  0.04044842  0.18685494  0.59108882     0.11200
H1968       H  0.04277223  0.16505250  0.57200091     0.13200
C1969       C  0.08576793  0.37891509  0.39171185     0.19300
C1970       C  0.08128730  0.39134586  0.39310078    -0.18800
C1971       C  0.08215355  0.40005740  0.38312505    -0.11000
C1972       C  0.08750524  0.39651409  0.37143405     0.21600
C1973       C  0.09206116  0.38410680  0.37005239    -0.20400
C1974       C  0.09125820  0.37539827  0.38006944    -0.11200
C1975       C  0.08729964  0.40506482  0.36017383    -0.15400
C1976       C  0.08644990  0.41776112  0.36098980    -0.29200
C1977       C  0.08341659  0.36969677  0.40217476    -0.03500
C1978       C  0.08933066  0.35845293  0.40339231    -0.40000
H1979       H  0.07681731  0.39425762  0.40186347     0.12700
H1980       H  0.07810851  0.40936046  0.38448118     0.12400
H1981       H  0.09601403  0.38105722  0.36108915     0.11800
H1982       H  0.09448113  0.36583023  0.37842743     0.12000
H1983       H  0.08735884  0.40067916  0.35084791     0.14800
H1984       H  0.08684198  0.42241548  0.37014842     0.13500
H1985       H  0.07614094  0.37216917  0.40903112     0.11200
H1986       H  0.09689409  0.35578144  0.39698207     0.13200
C1987       C  0.91896514  0.37151552  0.37937564     0.19300
C1988       C  0.92308578  0.37110863  0.36671174    -0.18800
C1989       C  0.92234910  0.38184491  0.35889284    -0.11000
C1990       C  0.91749440  0.39334885  0.36357523     0.21600
C1991       C  0.91335479  0.39374794  0.37622649    -0.20400
C1992       C  0.91403576  0.38299933  0.38402899    -0.11200
C1993       C  0.91763082  0.40533195  0.35597434    -0.15400
C1994       C  0.91834413  0.40568741  0.34320824    -0.29200
C1995       C  0.92096561  0.36015626  0.38765230    -0.03500
C1996       C  0.91509873  0.35832095  0.39887237    -0.40000
H1997       H  0.92712366  0.36249811  0.36290835     0.12700
H1998       H  0.92605733  0.38115934  0.34935480     0.12400
H1999       H  0.90978146  0.40250415  0.38017798     0.11800
H2000       H  0.91112449  0.38393939  0.39380995     0.12000
H2001       H  0.91750536  0.41423092  0.36114819     0.14800
H2002       H  0.91809556  0.39697335  0.33777997     0.13500
H2003       H  0.92786392  0.35319431  0.38453326     0.11200
H2004       H  0.90792923  0.36490171  0.40210373     0.13200
C2005       C  0.01528902  0.43953352  0.33335127     0.19300
C2006       C  0.00673254  0.44611687  0.34106894    -0.18800
C2007       C  0.99368843  0.44582869  0.33843497    -0.11000
C2008       C  0.98899300  0.43900010  0.32793741     0.21600
C2009       C  0.99756374  0.43250224  0.32017337    -0.20400
C2010       C  0.01057820  0.43271264  0.32285669    -0.11200
C2011       C  0.97532156  0.43883575  0.32449447    -0.15400
C2012       C  0.96600990  0.44038222  0.33302411    -0.29200
C2013       C  0.02912654  0.44092947  0.33570518    -0.03500
C2014       C  0.03761551  0.43221842  0.33202683    -0.40000
H2015       H  0.01017258  0.45162885  0.34903921     0.12700
H2016       H  0.98739701  0.45128525  0.34440889     0.12400
H2017       H  0.99418558  0.42732457  0.31194615     0.11800
H2018       H  0.01693004  0.42791422  0.31640876     0.12000
H2019       H  0.97281880  0.43677785  0.31468099     0.14800
H2020       H  0.96820860  0.44168348  0.34301051     0.13500
H2021       H  0.03244740  0.44960591  0.34019364     0.11200
H2022       H  0.03446161  0.42324841  0.32807681     0.13200
C2023       C  0.07962556  0.43850088  0.26954932     0.19300
C2024       C  0.07401182  0.44768047  0.26172041    -0.18800
C2025       C  0.07524428  0.44706384  0.24856980    -0.11000
C2026       C  0.08187822  0.43709210  0.24286788     0.21600
C2027       C  0.08758407  0.42785071  0.25066291    -0.20400
C2028       C  0.08649738  0.42857165  0.26392252    -0.11200
C2029       C  0.08280163  0.43703830  0.22881163    -0.15400
C2030       C  0.08462741  0.42664818  0.22165286    -0.29200
C2031       C  0.07740025  0.43937011  0.28341696    -0.03500
C2032       C  0.08513648  0.43458512  0.29243022    -0.40000
H2033       H  0.06863906  0.45539753  0.26580639     0.12700
H2034       H  0.07081968  0.45434377  0.24279906     0.12400
H2035       H  0.09297439  0.42015962  0.24658436     0.11800
H2036       H  0.09077627  0.42123426  0.26968498     0.12000
H2037       H  0.08118135  0.44604396  0.22405307     0.14800
H2038       H  0.08570799  0.41738171  0.22598736     0.13500
H2039       H  0.06911347  0.44475392  0.28636634     0.11200
H2040       H  0.09388372  0.42977657  0.28991135     0.13200
C2041       C  0.92785744  0.42705485  0.26283319     0.19300
C2042       C  0.93208449  0.41659447  0.25581049    -0.18800
C2043       C  0.93207333  0.41691137  0.24250507    -0.11000
C2044       C  0.92800606  0.42781975  0.23596384     0.21600
C2045       C  0.92375086  0.43824271  0.24300837    -0.20400
C2046       C  0.92361221  0.43786556  0.25627224    -0.11200
C2047       C  0.92915043  0.42917491  0.22195265    -0.15400
C2048       C  0.92936736  0.41939327  0.21376088    -0.29200
C2049       C  0.92898793  0.42691087  0.27691468    -0.03500
C2050       C  0.92131510  0.43366970  0.28452757    -0.40000
H2051       H  0.93558451  0.40823428  0.26063895     0.12700
H2052       H  0.93574914  0.40881729  0.23742989     0.12400
H2053       H  0.92075082  0.44681993  0.23822886     0.11800
H2054       H  0.92067082  0.44626020  0.26134651     0.12000
H2055       H  0.92983056  0.43875661  0.21820213     0.14800
H2056       H  0.92796389  0.40975580  0.21708064     0.13500
H2057       H  0.93646039  0.42115248  0.28112840     0.11200
H2058       H  0.91332791  0.43884276  0.28054171     0.13200
C2059       C  0.02409788  0.41663209  0.17647100     0.19300
C2060       C  0.01563220  0.40877893  0.18321042    -0.18800
C2061       C  0.00240729  0.40974068  0.18138192    -0.11000
C2062       C  0.99737478  0.41875504  0.17288406     0.21600
C2063       C  0.00585134  0.42639380  0.16598492    -0.20400
C2064       C  0.01901156  0.42535070  0.16770542    -0.11200
C2065       C  0.98349907  0.42154900  0.17193047    -0.15400
C2066       C  0.97407349  0.41340450  0.17496642    -0.29200
C2067       C  0.03798800  0.41650224  0.17964470    -0.03500
C2068       C  0.04704691  0.42059581  0.17156202    -0.40000
H2069       H  0.01925220  0.40209636  0.19014096     0.12700
H2070       H  0.99618477  0.40386663  0.18708181     0.12400
H2071       H  0.00225448  0.43351176  0.15949218     0.11800
H2072       H  0.02509089  0.43187190  0.16259872     0.12000
H2073       H  0.98092160  0.43095443  0.16859736     0.14800
H2074       H  0.97621526  0.40372261  0.17768176     0.13500
H2075       H  0.04076988  0.41345343  0.18911880     0.11200
H2076       H  0.04449252  0.42318464  0.16191342     0.13200
C2077       C  0.08508050  0.64594909  0.38046038     0.19300
C2078       C  0.08619013  0.64835552  0.36741062    -0.18800
C2079       C  0.08755041  0.63843302  0.35874675    -0.11000
C2080       C  0.08766506  0.62574550  0.36293820     0.21600
C2081       C  0.08704287  0.62338527  0.37606564    -0.20400
C2082       C  0.08574435  0.63333669  0.38474058    -0.11200
C2083       C  0.08713464  0.61469302  0.35409404    -0.15400
C2084       C  0.08641854  0.61560268  0.34134612    -0.29200
C2085       C  0.08207774  0.65672268  0.38903366    -0.03500
C2086       C  0.08390460  0.65665241  0.40169231    -0.40000
H2087       H  0.08569652  0.65797530  0.36385406     0.12700
H2088       H  0.08807829  0.64087888  0.34880941     0.12400
H2089       H  0.08705149  0.61374810  0.37961251     0.11800
H2090       H  0.08467036  0.63102848  0.39468982     0.12000
H2091       H  0.08603235  0.60537428  0.35836229     0.14800
H2092       H  0.08732617  0.62464223  0.33657984     0.13500
H2093       H  0.07799433  0.66511989  0.38466409     0.11200
H2094       H  0.08845652  0.64867567  0.40633478     0.13200
C2095       C  0.08258711  0.52727553  0.33219180     0.19300
C2096       C  0.09304326  0.51942631  0.32972294    -0.18800
C2097       C  0.09185506  0.50620402  0.33066451    -0.11000
C2098       C  0.08019397  0.50064900  0.33430297     0.21600
C2099       C  0.07000703  0.50860779  0.33742860    -0.20400
C2100       C  0.07118537  0.52173672  0.33644481    -0.11200
C2101       C  0.07775503  0.48674042  0.33416410    -0.15400
C2102       C  0.08671095  0.47768767  0.33326410    -0.29200
C2103       C  0.08349845  0.54115786  0.32993847    -0.03500
C2104       C  0.07353190  0.54763068  0.32524326    -0.40000
H2105       H  0.10195729  0.52349490  0.32655624     0.12700
H2106       H  0.09993105  0.50044704  0.32809142     0.12400
H2107       H  0.06097503  0.50464056  0.34039681     0.11800
H2108       H  0.06307445  0.52754719  0.33887137     0.12000
H2109       H  0.06784671  0.48377707  0.33474220     0.14800
H2110       H  0.09675310  0.48007681  0.33311239     0.13500
H2111       H  0.09252562  0.54595535  0.33155320     0.11200
H2112       H  0.06483024  0.54260284  0.32277274     0.13200
C2113       C  0.90446895  0.65043030  0.38015738     0.19300
C2114       C  0.90405167  0.63749511  0.38326035    -0.18800
C2115       C  0.90457610  0.62822668  0.37379985    -0.11000
C2116       C  0.90541187  0.63169756  0.36091990     0.21600
C2117       C  0.90524573  0.64463593  0.35777666    -0.20400
C2118       C  0.90470542  0.65390977  0.36724640    -0.11200
C2119       C  0.90785349  0.62230601  0.35066954    -0.15400
C2120       C  0.90647741  0.60966644  0.35197570    -0.29200
C2121       C  0.90524949  0.65983146  0.39069783    -0.03500
C2122       C  0.90970823  0.67172628  0.38928215    -0.40000
H2123       H  0.90382821  0.63452054  0.39310166     0.12700
H2124       H  0.90490966  0.61842813  0.37674267     0.12400
H2125       H  0.90584367  0.64760146  0.34794755     0.11800
H2126       H  0.90463499  0.66373687  0.36435740     0.12000
H2127       H  0.91169935  0.62596925  0.34182746     0.14800
H2128       H  0.90226787  0.60561920  0.36043112     0.13500
H2129       H  0.90326889  0.65644000  0.40023775     0.11200
H2130       H  0.91251324  0.67521962  0.38002931     0.13200
C2131       C  0.01097897  0.59255829  0.32584476     0.19300
C2132       C  0.00217169  0.59961872  0.31876187    -0.18800
C2133       C  0.98912601  0.59847982  0.32107394    -0.11000
C2134       C  0.98461575  0.59016153  0.33051473     0.21600
C2135       C  0.99341972  0.58312497  0.33761661    -0.20400
C2136       C  0.00646090  0.58429874  0.33533928    -0.11200
C2137       C  0.97084499  0.58763304  0.33231889    -0.15400
C2138       C  0.96168216  0.59575653  0.32877821    -0.29200
C2139       C  0.02466721  0.59328369  0.32243662    -0.03500
C2140       C  0.03405508  0.59017838  0.33054175    -0.40000
H2141       H  0.00538394  0.60586705  0.31126388     0.12700
H2142       H  0.98264213  0.60373924  0.31507235     0.12400
H2143       H  0.99017867  0.57648438  0.34476238     0.11800
H2144       H  0.01287802  0.57833316  0.34070757     0.12000
H2145       H  0.96814648  0.57853090  0.33635723     0.14800
H2146       H  0.96406029  0.60512412  0.32525558     0.13500
H2147       H  0.02708328  0.59633794  0.31288659     0.11200
H2148       H  0.03193590  0.58768998  0.34029724     0.13200
C2149       C  0.92090494  0.49804260  0.33079447     0.19300
C2150       C  0.93004685  0.50626227  0.33603048    -0.18800
C2151       C  0.92813257  0.51935347  0.33608141    -0.11000
C2152       C  0.91698209  0.52458512  0.33081334     0.21600
C2153       C  0.90780198  0.51635008  0.32560946    -0.20400
C2154       C  0.90968513  0.50320491  0.32564775    -0.11200
C2155       C  0.91519862  0.53853758  0.32953844    -0.15400
C2156       C  0.92150841  0.54711094  0.33665283    -0.29200
C2157       C  0.92406400  0.48436614  0.32981498    -0.03500
C2158       C  0.91547708  0.47491397  0.32860493    -0.40000
H2159       H  0.93886261  0.50255248  0.33986212     0.12700
H2160       H  0.93568301  0.52529660  0.33977658     0.12400
H2161       H  0.89924182  0.52012159  0.32128313     0.11800
H2162       H  0.90259499  0.49719906  0.32120402     0.12000
H2163       H  0.90881470  0.54187306  0.32211196     0.14800
H2164       H  0.92762067  0.54406818  0.34439294     0.13500
H2165       H  0.93411482  0.48195739  0.33017471     0.11200
H2166       H  0.90534110  0.47681248  0.32896496     0.13200
C2167       C  0.08328463  0.51744127  0.17476775     0.19300
C2168       C  0.09439334  0.51046798  0.17717140    -0.18800
C2169       C  0.09408435  0.49720275  0.17738470    -0.11000
C2170       C  0.08259551  0.49062083  0.17510487     0.21600
C2171       C  0.07157034  0.49763626  0.17248173    -0.20400
C2172       C  0.07188657  0.51084678  0.17225763    -0.11200
C2173       C  0.08139957  0.47655976  0.17549522    -0.15400
C2174       C  0.09085671  0.46849033  0.17840685    -0.29200
C2175       C  0.08399934  0.53151476  0.17457437    -0.03500
C2176       C  0.07377324  0.53898645  0.17608561    -0.40000
H2177       H  0.10332671  0.51530556  0.17898862     0.12700
H2178       H  0.10287507  0.49227829  0.17936208     0.12400
H2179       H  0.06261727  0.49286887  0.17057499     0.11800
H2180       H  0.06318877  0.51577274  0.16988420     0.12000
H2181       H  0.07200457  0.47261131  0.17357742     0.14800
H2182       H  0.10042822  0.47183317  0.18038759     0.13500
H2183       H  0.09331727  0.53588411  0.17339666     0.11200
H2184       H  0.06444185  0.53493884  0.17786043     0.13200
C2185       C  0.07813343  0.59664498  0.25999040     0.19300
C2186       C  0.08825372  0.59052699  0.25380043    -0.18800
C2187       C  0.08889717  0.59042465  0.24051003    -0.11000
C2188       C  0.07942670  0.59638413  0.23313133     0.21600
C2189       C  0.06976614  0.60303973  0.23933712    -0.20400
C2190       C  0.06910879  0.60313397  0.25257780    -0.11200
C2191       C  0.07900101  0.59548690  0.21902606    -0.15400
C2192       C  0.08379693  0.58557463  0.21265869    -0.29200
C2193       C  0.07607834  0.59613813  0.27397973    -0.03500
C2194       C  0.08316596  0.58955462  0.28238389    -0.40000
H2195       H  0.09559041  0.58563233  0.25906180     0.12700
H2196       H  0.09677030  0.58560136  0.23607507     0.12400
H2197       H  0.06242383  0.60782575  0.23391452     0.11800
H2198       H  0.06127115  0.60803802  0.25704108     0.12000
H2199       H  0.07345477  0.60249078  0.21384872     0.14800
H2200       H  0.08857229  0.57801217  0.21775376     0.13500
H2201       H  0.06778316  0.60111101  0.27752782     0.11200
H2202       H  0.09163576  0.58452230  0.27949968     0.13200
C2203       C  0.92803351  0.48539043  0.17068495     0.19300
C2204       C  0.91701309  0.49254054  0.17272466    -0.18800
C2205       C  0.91719183  0.50569525  0.17117639    -0.11000
C2206       C  0.92853739  0.51200969  0.16785035     0.21600
C2207       C  0.93951427  0.50482429  0.16563033    -0.20400
C2208       C  0.93931030  0.49165918  0.16710138    -0.11200
C2209       C  0.92945584  0.52604760  0.16714150    -0.15400
C2210       C  0.92189484  0.53373028  0.17389950    -0.29200
C2211       C  0.92759632  0.47151025  0.17288291    -0.03500
C2212       C  0.93508436  0.46333004  0.16665525    -0.40000
H2213       H  0.90821826  0.48791890  0.17547178     0.12700
H2214       H  0.90843437  0.51083617  0.17260753     0.12400
H2215       H  0.94837716  0.50944808  0.16311435     0.11800
H2216       H  0.94807738  0.48648301  0.16577987     0.12000
H2217       H  0.93739022  0.53014368  0.16193296     0.14800
H2218       H  0.91438006  0.52983940  0.17977974     0.13500
H2219       H  0.92071048  0.46789780  0.17967630     0.11200
H2220       H  0.94156934  0.46669275  0.15939007     0.13200
C2221       C  0.92512297  0.58309806  0.26595473     0.19300
C2222       C  0.93546844  0.57835071  0.25906300    -0.18800
C2223       C  0.93526478  0.57814796  0.24582105    -0.11000
C2224       C  0.92462886  0.58266674  0.23907044     0.21600
C2225       C  0.91439751  0.58774858  0.24591227    -0.20400
C2226       C  0.91458724  0.58793097  0.25922774    -0.11200
C2227       C  0.92407593  0.58241257  0.22494306    -0.15400
C2228       C  0.93059591  0.57396249  0.21799508    -0.29200
C2229       C  0.92610409  0.58302649  0.28005684    -0.03500
C2230       C  0.91656126  0.58547702  0.28820178    -0.40000
H2231       H  0.94380115  0.57476403  0.26395223     0.12700
H2232       H  0.94356667  0.57462099  0.24094948     0.12400
H2233       H  0.90617900  0.59147284  0.24093920     0.11800
H2234       H  0.90653425  0.59195302  0.26411770     0.12000
H2235       H  0.91775379  0.58901646  0.22015705     0.14800
H2236       H  0.93632810  0.56677597  0.22262887     0.13500
H2237       H  0.93535596  0.58056769  0.28400171     0.11200
H2238       H  0.90707016  0.58774905  0.28484807     0.13200
C2239       C  0.01535141  0.58789581  0.17135123     0.19300
C2240       C  0.00683804  0.59364793  0.17981363    -0.18800
C2241       C  0.99366342  0.59174620  0.17862460    -0.11000
C2242       C  0.98871212  0.58386415  0.16901635     0.21600
C2243       C  0.99720374  0.57830688  0.16042448    -0.20400
C2244       C  0.01034872  0.58033120  0.16151484    -0.11200
C2245       C  0.97504393  0.58002586  0.16858087    -0.15400
C2246       C  0.96546420  0.58696255  0.17337459    -0.29200
C2247       C  0.02931668  0.58875005  0.17391145    -0.03500
C2248       C  0.03832435  0.58685405  0.16503234    -0.40000
H2249       H  0.01042089  0.59935342  0.18759033     0.12700
H2250       H  0.98747248  0.59593012  0.18564516     0.12400
H2251       H  0.99367473  0.57205645  0.15305425     0.11800
H2252       H  0.01656151  0.57540783  0.15502196     0.12000
H2253       H  0.97282387  0.57087630  0.16436646     0.14800
H2254       H  0.96727354  0.59641621  0.17702321     0.13500
H2255       H  0.03227866  0.59044967  0.18366725     0.11200
H2256       H  0.03564374  0.58560923  0.15515122     0.13200
C2257       C  0.13664063  0.11840920  0.41273423     0.19300
C2258       C  0.12389464  0.11846633  0.41666544    -0.18800
C2259       C  0.11651881  0.12940324  0.41561668    -0.11000
C2260       C  0.12173162  0.14064964  0.41061649     0.21600
C2261       C  0.13440332  0.14053734  0.40638885    -0.20400
C2262       C  0.14178286  0.12952126  0.40735534    -0.11200
C2263       C  0.11467160  0.15286371  0.41111007    -0.15400
C2264       C  0.10188002  0.15348144  0.41158675    -0.29200
C2265       C  0.14451301  0.10710610  0.41583545    -0.03500
C2266       C  0.15572904  0.10429115  0.41038792    -0.40000
H2267       H  0.11973765  0.11011768  0.42099096     0.12700
H2268       H  0.10695894  0.12913425  0.41939115     0.12400
H2269       H  0.13871735  0.14910277  0.40267576     0.11800
H2270       H  0.15165397  0.12997005  0.40448640     0.12000
H2271       H  0.12021344  0.16155559  0.41184551     0.14800
H2272       H  0.09617588  0.14497950  0.41034006     0.13500
H2273       H  0.14097811  0.10090624  0.42329358     0.11200
H2274       H  0.15929153  0.10984909  0.40248444     0.13200
C2275       C  0.11756842  0.86979564  0.41688974     0.19300
C2276       C  0.13082754  0.86859714  0.41571040    -0.18800
C2277       C  0.13874226  0.87931560  0.41521700    -0.11000
C2278       C  0.13357806  0.89158645  0.41600986     0.21600
C2279       C  0.12029899  0.89278461  0.41711867    -0.20400
C2280       C  0.11237811  0.88205962  0.41752294    -0.11200
C2281       C  0.14168228  0.90323272  0.41701837    -0.15400
C2282       C  0.15420224  0.90375561  0.41420922    -0.29200
C2283       C  0.10964569  0.85809978  0.41852590    -0.03500
C2284       C  0.09705040  0.85747382  0.41603013    -0.40000
H2285       H  0.13511953  0.85929369  0.41539767     0.12700
H2286       H  0.14890243  0.87784398  0.41472943     0.12400
H2287       H  0.11604229  0.90206937  0.41797591     0.11800
H2288       H  0.10226883  0.88343833  0.41883508     0.12000
H2289       H  0.13722036  0.91164869  0.42089575     0.14800
H2290       H  0.15895546  0.89568489  0.41004822     0.13500
H2291       H  0.11438922  0.84968004  0.42210437     0.11200
H2292       H  0.09218973  0.86558492  0.41196990     0.13200
C2293       C  0.17244605  0.01757420  0.41147671     0.19300
C2294       C  0.18161824  0.00899756  0.40707570    -0.18800
C2295       C  0.17936960  0.99591211  0.40742251    -0.11000
C2296       C  0.16789538  0.99108937  0.41233794     0.21600
C2297       C  0.15852451  0.99966156  0.41627624    -0.20400
C2298       C  0.16072292  0.01274906  0.41582979    -0.11200
C2299       C  0.16625662  0.97741604  0.41542974    -0.15400
C2300       C  0.17262492  0.96795793  0.40973196    -0.29200
C2301       C  0.17599833  0.03123530  0.41257945    -0.03500
C2302       C  0.16758322  0.04070510  0.41414619    -0.40000
H2303       H  0.19075829  0.01241226  0.40377994     0.12700
H2304       H  0.18695205  0.98963439  0.40459031     0.12400
H2305       H  0.14967086  0.99619881  0.42024906     0.11800
H2306       H  0.15347467  0.01892698  0.41957246     0.12000
H2307       H  0.16012784  0.97513279  0.42341363     0.14800
H2308       H  0.17825342  0.96977871  0.40129948     0.13500
H2309       H  0.18609077  0.03353762  0.41252735     0.11200
H2310       H  0.15743884  0.03883489  0.41394312     0.13200
C2311       C  0.23890642  0.08612297  0.41573912     0.19300
C2312       C  0.24731510  0.07690967  0.41116496    -0.18800
C2313       C  0.26048750  0.07829937  0.41270199    -0.11000
C2314       C  0.26562891  0.08908227  0.41874378     0.21600
C2315       C  0.25723643  0.09848879  0.42296427    -0.20400
C2316       C  0.24405031  0.09710422  0.42140576    -0.11200
C2317       C  0.27951500  0.09045466  0.42157780    -0.15400
C2318       C  0.28863223  0.08372897  0.41571526    -0.29200
C2319       C  0.22493316  0.08361377  0.41483461    -0.03500
C2320       C  0.21623369  0.08941691  0.42212791    -0.40000
H2321       H  0.24366204  0.06836867  0.40675375     0.12700
H2322       H  0.26648525  0.07063956  0.40955016     0.12400
H2323       H  0.26089218  0.10690107  0.42760809     0.11800
H2324       H  0.23799735  0.10465586  0.42472895     0.12000
H2325       H  0.28230980  0.09707995  0.42897807     0.14800
H2326       H  0.28621177  0.07737183  0.40800843     0.13500
H2327       H  0.22179569  0.07590440  0.40872511     0.11200
H2328       H  0.21909834  0.09666266  0.42884664     0.13200
C2329       C  0.23832199  0.92811368  0.42317792     0.19300
C2330       C  0.24625878  0.91750014  0.42429111    -0.18800
C2331       C  0.25951356  0.91897819  0.42513656    -0.11000
C2332       C  0.26507583  0.93114827  0.42465260     0.21600
C2333       C  0.25710009  0.94168575  0.42314984    -0.20400
C2334       C  0.24390993  0.94020821  0.42237426    -0.11200
C2335       C  0.27898339  0.93351232  0.42619540    -0.15400
C2336       C  0.28807082  0.92456788  0.42572636    -0.29200
C2337       C  0.22425852  0.92644984  0.42286478    -0.03500
C2338       C  0.21642502  0.93504470  0.42804389    -0.40000
H2339       H  0.24217293  0.90808351  0.42485306     0.12700
H2340       H  0.26524065  0.91059151  0.42645135     0.12400
H2341       H  0.26108661  0.95115036  0.42265130     0.11800
H2342       H  0.23810654  0.94856770  0.42109562     0.12000
H2343       H  0.28190930  0.94327270  0.42779997     0.14800
H2344       H  0.28571608  0.91474910  0.42383875     0.13500
H2345       H  0.22032208  0.91781584  0.41881524     0.11200
H2346       H  0.22038228  0.94320313  0.43295076     0.13200
C2347       C  0.33144588  0.02170049  0.43068473     0.19300
C2348       C  0.33723203  0.01375032  0.42174314    -0.18800
C2349       C  0.33639916  0.00055941  0.42285909    -0.11000
C2350       C  0.32970727  0.99498449  0.43301268     0.21600
C2351       C  0.32426810  0.00294244  0.44215136    -0.20400
C2352       C  0.32513500  0.01611024  0.44106089    -0.11200
C2353       C  0.32810561  0.98103276  0.43460682    -0.15400
C2354       C  0.33157137  0.97229547  0.42601134    -0.29200
C2355       C  0.33223124  0.03567647  0.42875034    -0.03500
C2356       C  0.32523167  0.04415483  0.43518229    -0.40000
H2357       H  0.34231102  0.01776158  0.41375799     0.12700
H2358       H  0.34102872  0.99489894  0.41571217     0.12400
H2359       H  0.31922712  0.99895348  0.45017445     0.11800
H2360       H  0.32086803  0.02174014  0.44844044     0.12000
H2361       H  0.32359898  0.97777383  0.44329843     0.14800
H2362       H  0.33600359  0.97499132  0.41714217     0.13500
H2363       H  0.33854995  0.03912594  0.42135446     0.11200
H2364       H  0.31856393  0.04117248  0.44241086     0.13200
C2365       C  0.33945460  0.09458606  0.48574380     0.19300
C2366       C  0.34869197  0.08901966  0.49362467    -0.18800
C2367       C  0.34765180  0.08956615  0.50685885    -0.11000
C2368       C  0.33723096  0.09568035  0.51256487     0.21600
C2369       C  0.32824457  0.10162312  0.50465937    -0.20400
C2370       C  0.32930067  0.10108506  0.49143300    -0.11200
C2371       C  0.33458797  0.09510402  0.52648322    -0.15400
C2372       C  0.34243520  0.08998383  0.53521713    -0.29200
C2373       C  0.33993090  0.09206842  0.47183740    -0.03500
C2374       C  0.33319881  0.09847406  0.46301412    -0.40000
H2375       H  0.35655356  0.08385064  0.48951425     0.12700
H2376       H  0.35479238  0.08472337  0.51242874     0.12400
H2377       H  0.32007988  0.10631551  0.50872476     0.11800
H2378       H  0.32177716  0.10524396  0.48577893     0.12000
H2379       H  0.32530128  0.09834272  0.52958668     0.14800
H2380       H  0.35184804  0.08674646  0.53266631     0.13500
H2381       H  0.34557151  0.08400463  0.46881120     0.11200
H2382       H  0.32780677  0.10683375  0.46555950     0.13200
C2383       C  0.33036768  0.01857752  0.57368722     0.19300
C2384       C  0.33771473  0.01102130  0.58187042    -0.18800
C2385       C  0.33624906  0.99785515  0.58200885    -0.11000
C2386       C  0.32737472  0.99193655  0.57389173     0.21600
C2387       C  0.31998503  0.99947589  0.56576719    -0.20400
C2388       C  0.32144621  0.01263172  0.56562197    -0.11200
C2389       C  0.32508613  0.97804795  0.57398854    -0.15400
C2390       C  0.33355669  0.96954655  0.57831386    -0.29200
C2391       C  0.33190683  0.03257347  0.57439041    -0.03500
C2392       C  0.32677679  0.04079448  0.56606346    -0.40000
H2393       H  0.34452837  0.01533711  0.58831131     0.12700
H2394       H  0.34185293  0.99244901  0.58871309     0.12400
H2395       H  0.31297455  0.99516650  0.55954066     0.11800
H2396       H  0.31532463  0.01799577  0.55937198     0.12000
H2397       H  0.31610216  0.97465770  0.57007952     0.14800
H2398       H  0.34281230  0.97253060  0.58182393     0.13500
H2399       H  0.33752125  0.03631187  0.58224410     0.11200
H2400       H  0.32143740  0.03756582  0.55786065     0.13200
C2401       C  0.33024669  0.92218350  0.49208624     0.19300
C2402       C  0.32470142  0.91290060  0.49992436    -0.18800
C2403       C  0.32518862  0.91401051  0.51320420    -0.11000
C2404       C  0.33117448  0.92454599  0.51890611     0.21600
C2405       C  0.33690920  0.93365153  0.51103922    -0.20400
C2406       C  0.33644332  0.93253466  0.49784771    -0.11200
C2407       C  0.33105676  0.92709547  0.53282517    -0.15400
C2408       C  0.32684194  0.91912258  0.54190586    -0.29200
C2409       C  0.32836226  0.92153880  0.47805079    -0.03500
C2410       C  0.33583567  0.92776671  0.46972694    -0.40000
H2411       H  0.31974546  0.90490007  0.49575089     0.12700
H2412       H  0.32052796  0.90681847  0.51885243     0.12400
H2413       H  0.34149497  0.94191484  0.51511203     0.11800
H2414       H  0.34047861  0.94014138  0.49225585     0.12000
H2415       H  0.33453811  0.93634978  0.53577601     0.14800
H2416       H  0.32357813  0.90964792  0.53961468     0.13500
H2417       H  0.32023036  0.91619142  0.47450045     0.11200
H2418       H  0.34433137  0.93267595  0.47298819     0.13200
C2419       C  0.14532242  0.12583256  0.58741443     0.19300
C2420       C  0.14676881  0.13812031  0.58246709    -0.18800
C2421       C  0.13664247  0.14669883  0.58245096    -0.11000
C2422       C  0.12472379  0.14326311  0.58752319     0.21600
C2423       C  0.12334332  0.13108228  0.59275633    -0.20400
C2424       C  0.13350005  0.12248345  0.59278356    -0.11200
C2425       C  0.11331024  0.15166425  0.58658270    -0.15400
C2426       C  0.11395735  0.16419014  0.58414501    -0.29200
C2427       C  0.15619279  0.11680845  0.58606195    -0.03500
C2428       C  0.15558279  0.10425330  0.58840642    -0.40000
H2429       H  0.15569261  0.14100175  0.57821465     0.12700
H2430       H  0.13815222  0.15579755  0.57798616     0.12400
H2431       H  0.11429542  0.12813016  0.59668329     0.11800
H2432       H  0.13188780  0.11322940  0.59687411     0.12000
H2433       H  0.10398820  0.14724331  0.58738287     0.14800
H2434       H  0.12309659  0.16893249  0.58354345     0.13500
H2435       H  0.16491358  0.12056174  0.58196434     0.11200
H2436       H  0.14700524  0.09995819  0.59215398     0.13200
C2437       C  0.17751350  0.07753833  0.48659103     0.19300
C2438       C  0.16977277  0.08472511  0.49461557    -0.18800
C2439       C  0.17137666  0.08417259  0.50776332    -0.11000
C2440       C  0.18079662  0.07636300  0.51316230     0.21600
C2441       C  0.18864989  0.06930422  0.50512723    -0.20400
C2442       C  0.18704593  0.06985868  0.49198026    -0.11200
C2443       C  0.18312866  0.07576729  0.52703507    -0.15400
C2444       C  0.17442833  0.07907611  0.53570960    -0.29200
C2445       C  0.17592466  0.07895108  0.47267714    -0.03500
C2446       C  0.18000234  0.07032092  0.46430137    -0.40000
H2447       H  0.16253738  0.09088981  0.49068830     0.12700
H2448       H  0.16542726  0.09014437  0.51356539     0.12400
H2449       H  0.19611570  0.06340351  0.50903366     0.11800
H2450       H  0.19354955  0.06453789  0.48612731     0.12000
H2451       H  0.19234556  0.07231680  0.53023902     0.14800
H2452       H  0.16498521  0.08212349  0.53288784     0.13500
H2453       H  0.17124281  0.08745304  0.46919599     0.11200
H2454       H  0.18417868  0.06147810  0.46747466     0.13200
C2455       C  0.27015115  0.09031376  0.58028161     0.19300
C2456       C  0.26203041  0.09718850  0.57222442    -0.18800
C2457       C  0.24878021  0.09620603  0.57330765    -0.11000
C2458       C  0.24323846  0.08827458  0.58256965     0.21600
C2459       C  0.25136812  0.08173813  0.59090935    -0.20400
C2460       C  0.26462256  0.08274980  0.58984484    -0.11200
C2461       C  0.22919311  0.08599444  0.58356597    -0.15400
C2462       C  0.22038188  0.09138908  0.57598473    -0.29200
C2463       C  0.28418092  0.09096807  0.57793462    -0.03500
C2464       C  0.29279791  0.08331939  0.58349559    -0.40000
H2465       H  0.26595100  0.10315019  0.56482239     0.12700
H2466       H  0.24308438  0.10152884  0.56665205     0.12400
H2467       H  0.24745033  0.07563251  0.59819003     0.11800
H2468       H  0.27035763  0.07746293  0.59650893     0.12000
H2469       H  0.22599616  0.07906222  0.59050477     0.14800
H2470       H  0.22306225  0.09831457  0.56890130     0.13500
H2471       H  0.28747612  0.09748262  0.57064153     0.11200
H2472       H  0.28994680  0.07647412  0.59060196     0.13200
C2473       C  0.13850888  0.88962742  0.58870992     0.19300
C2474       C  0.13985531  0.87658216  0.58653553    -0.18800
C2475       C  0.12934856  0.86843238  0.58702040    -0.11000
C2476       C  0.11714203  0.87312794  0.58975498     0.21600
C2477       C  0.11581943  0.88612569  0.59227008    -0.20400
C2478       C  0.12637087  0.89430259  0.59181389    -0.11200
C2479       C  0.10550787  0.86502814  0.58875139    -0.15400
C2480       C  0.10570678  0.85228889  0.58950279    -0.29200
C2481       C  0.14972408  0.89797852  0.58626741    -0.03500
C2482       C  0.15049732  0.91039202  0.58915719    -0.40000
H2483       H  0.14903325  0.87271575  0.58399266     0.12700
H2484       H  0.13080383  0.85858672  0.58462608     0.12400
H2485       H  0.10652457  0.89002598  0.59425555     0.11800
H2486       H  0.12480329  0.90429607  0.59334860     0.12000
H2487       H  0.09653190  0.86971854  0.58673525     0.14800
H2488       H  0.11444284  0.84738489  0.59190560     0.13500
H2489       H  0.15765978  0.89371259  0.58127766     0.11200
H2490       H  0.14306825  0.91501859  0.59451601     0.13200
C2491       C  0.17408553  0.91967000  0.48726009     0.19300
C2492       C  0.18406329  0.91512727  0.49489539    -0.18800
C2493       C  0.18328918  0.91570051  0.50814812    -0.11000
C2494       C  0.17244584  0.92080780  0.51403520     0.21600
C2495       C  0.16208895  0.92440691  0.50640123    -0.20400
C2496       C  0.16287418  0.92386414  0.49316820    -0.11200
C2497       C  0.17161468  0.92281689  0.52799893    -0.15400
C2498       C  0.18186794  0.92409333  0.53561025    -0.29200
C2499       C  0.17584025  0.92021654  0.47325511    -0.03500
C2500       C  0.16960679  0.92850227  0.46577602    -0.40000
H2501       H  0.19266334  0.91152128  0.49059607     0.12700
H2502       H  0.19125332  0.91225895  0.51369142     0.12400
H2503       H  0.15348819  0.92804188  0.51068026     0.11800
H2504       H  0.15472116  0.92686229  0.48764299     0.12000
H2505       H  0.16220817  0.92419046  0.53203129     0.14800
H2506       H  0.19140692  0.92329418  0.53179985     0.13500
H2507       H  0.18315997  0.91429256  0.46910403     0.11200
H2508       H  0.16274597  0.93499453  0.46978281     0.13200
C2509       C  0.23867030  0.93010548  0.58808957     0.19300
C2510       C  0.24741957  0.93945320  0.59187165    -0.18800
C2511       C  0.26050849  0.93701712  0.59186713    -0.11000
C2512       C  0.26517069  0.92517453  0.58789561     0.21600
C2513       C  0.25638745  0.91578964  0.58421754    -0.20400
C2514       C  0.24327532  0.91817591  0.58439351    -0.11200
C2515       C  0.27904226  0.92283075  0.58611960    -0.15400
C2516       C  0.28821551  0.92943484  0.59217610    -0.29200
C2517       C  0.22503365  0.93354638  0.58660104    -0.03500
C2518       C  0.21540376  0.92517338  0.58771899    -0.40000
H2519       H  0.24412925  0.94877956  0.59452552     0.12700
H2520       H  0.26692033  0.94467808  0.59436583     0.12400
H2521       H  0.25970130  0.90668134  0.58089311     0.11800
H2522       H  0.23681831  0.91088020  0.58103607     0.12000
H2523       H  0.28177940  0.91584581  0.57907986     0.14800
H2524       H  0.28574137  0.93611764  0.59956883     0.13500
H2525       H  0.22289177  0.94330022  0.58410032     0.11200
H2526       H  0.21725612  0.91557806  0.59091844     0.13200
C2527       C  0.17343950  0.01956408  0.58164890     0.19300
C2528       C  0.16451320  0.01195784  0.57524008    -0.18800
C2529       C  0.16429745  0.99882657  0.57700096    -0.11000
C2530       C  0.17325751  0.99291222  0.58501106     0.21600
C2531       C  0.18180467  0.00057487  0.59188638    -0.20400
C2532       C  0.18195186  0.01375724  0.59019767    -0.11200
C2533       C  0.17439630  0.97883811  0.58587153    -0.15400
C2534       C  0.17074410  0.97110999  0.57634880    -0.29200
C2535       C  0.17417301  0.03328130  0.57839088    -0.03500
C2536       C  0.17920635  0.04225245  0.58601610    -0.40000
H2537       H  0.15777447  0.01618244  0.56869145     0.12700
H2538       H  0.15718852  0.99337007  0.57191725     0.12400
H2539       H  0.18875078  0.99630584  0.59817822     0.11800
H2540       H  0.18910720  0.01926020  0.59517595     0.12000
H2541       H  0.17942882  0.97483836  0.59396131     0.14800
H2542       H  0.16642670  0.97500637  0.56784989     0.13500
H2543       H  0.17028447  0.03613048  0.56924210     0.11200
H2544       H  0.18251273  0.03986979  0.59548760     0.13200
C2545       C  0.37061275  0.09304162  0.38636892     0.19300
C2546       C  0.38374278  0.09542188  0.38736681    -0.18800
C2547       C  0.39153483  0.09529811  0.37657679    -0.11000
C2548       C  0.38637016  0.09257782  0.36449576     0.21600
C2549       C  0.37317883  0.09043293  0.36351751    -0.20400
C2550       C  0.36538723  0.09070035  0.37427882    -0.11200
C2551       C  0.39439477  0.09066398  0.35294003    -0.15400
C2552       C  0.40684369  0.09373849  0.35206076    -0.29200
C2553       C  0.36283677  0.09172385  0.39812466    -0.03500
C2554       C  0.35032890  0.09447619  0.39858465    -0.40000
H2555       H  0.38803378  0.09711191  0.39657649     0.12700
H2556       H  0.40163365  0.09679234  0.37792124     0.12400
H2557       H  0.36891576  0.08817601  0.35441978     0.11800
H2558       H  0.35536901  0.08848267  0.37316974     0.12000
H2559       H  0.38991761  0.08594513  0.34490549     0.14800
H2560       H  0.41162804  0.09872245  0.35970526     0.13500
H2561       H  0.36752519  0.08809941  0.40659433     0.11200
H2562       H  0.34570956  0.09878213  0.39041876     0.13200
C2563       C  0.37893054  0.91690524  0.36580683     0.19300
C2564       C  0.38191126  0.91670677  0.37881911    -0.18800
C2565       C  0.37231354  0.91655098  0.38799233    -0.11000
C2566       C  0.35939791  0.91662236  0.38437681     0.21600
C2567       C  0.35638467  0.91637696  0.37136770    -0.20400
C2568       C  0.36600439  0.91648694  0.36217154    -0.11200
C2569       C  0.34898934  0.91867052  0.39373882    -0.15400
C2570       C  0.35023016  0.91677750  0.40634368    -0.29200
C2571       C  0.38953001  0.91887229  0.35657107    -0.03500
C2572       C  0.38848264  0.91760015  0.34387073    -0.40000
H2573       H  0.39174040  0.91713907  0.38193123     0.12700
H2574       H  0.37513013  0.91708448  0.39785783     0.12400
H2575       H  0.34653550  0.91657733  0.36829492     0.11800
H2576       H  0.36319063  0.91686108  0.35230018     0.12000
H2577       H  0.34018412  0.92274417  0.39015221     0.14800
H2578       H  0.35864950  0.91224460  0.41020390     0.13500
H2579       H  0.39859288  0.92208564  0.36044798     0.11200
H2580       H  0.37973563  0.91413392  0.33959795     0.13200
C2581       C  0.41841958  0.02009514  0.32059398     0.19300
C2582       C  0.40792146  0.01317215  0.31598878    -0.18800
C2583       C  0.40828982  0.99990475  0.31539369    -0.11000
C2584       C  0.41928203  0.99332580  0.31925980     0.21600
C2585       C  0.42980229  0.00027001  0.32368963    -0.20400
C2586       C  0.42938954  0.01346770  0.32440311    -0.11200
C2587       C  0.42044730  0.97932519  0.31836279    -0.15400
C2588       C  0.41052032  0.97125080  0.31889994    -0.29200
C2589       C  0.41810347  0.03419354  0.32039342    -0.03500
C2590       C  0.42545603  0.04142079  0.32801031    -0.40000
H2591       H  0.39944110  0.01805662  0.31275847     0.12700
H2592       H  0.40012172  0.99489133  0.31159930     0.12400
H2593       H  0.43844057  0.99545163  0.32656054     0.11800
H2594       H  0.43786356  0.01843104  0.32754774     0.12000
H2595       H  0.43001758  0.97546033  0.31795198     0.14800
H2596       H  0.40090453  0.97476718  0.32005795     0.13500
H2597       H  0.41180777  0.03875454  0.31357990     0.11200
H2598       H  0.43129004  0.03708832  0.33533186     0.13200
C2599       C  0.42938429  0.08573813  0.23527152     0.19300
C2600       C  0.42063309  0.09243472  0.24273979    -0.18800
C2601       C  0.42093399  0.09149484  0.25604491    -0.11000
C2602       C  0.42995040  0.08368897  0.26211960     0.21600
C2603       C  0.43858889  0.07694307  0.25460729    -0.20400
C2604       C  0.43831002  0.07790085  0.24140185    -0.11200
C2605       C  0.43051617  0.08167076  0.27611373    -0.15400
C2606       C  0.42458262  0.08870612  0.28495620    -0.29200
C2607       C  0.42862904  0.08649848  0.22114197    -0.03500
C2608       C  0.43875287  0.08424993  0.21369396    -0.40000
H2609       H  0.41353702  0.09837732  0.23826548     0.12700
H2610       H  0.41393806  0.09667261  0.26144536     0.12400
H2611       H  0.44553282  0.07073455  0.25897556     0.11800
H2612       H  0.44489895  0.07216201  0.23605909     0.12000
H2613       H  0.43650789  0.07392961  0.27936737     0.14800
H2614       H  0.41882592  0.09680185  0.28230783     0.13500
H2615       H  0.41953860  0.08882079  0.21678744     0.11200
H2616       H  0.44800271  0.08248148  0.21793546     0.13200
C2617       C  0.41198778  0.92643268  0.25850837     0.19300
C2618       C  0.40369945  0.93237701  0.24987206    -0.18800
C2619       C  0.40544091  0.93116027  0.23674136    -0.11000
C2620       C  0.41565321  0.92404563  0.23194729     0.21600
C2621       C  0.42384962  0.91799614  0.24060713    -0.20400
C2622       C  0.42204405  0.91912976  0.25371442    -0.11200
C2623       C  0.41892349  0.92366521  0.21818636    -0.15400
C2624       C  0.41121152  0.92732798  0.20858112    -0.29200
C2625       C  0.41062240  0.92903360  0.27234076    -0.03500
C2626       C  0.41489481  0.92126328  0.28158575    -0.40000
H2627       H  0.39598689  0.93820055  0.25330570     0.12700
H2628       H  0.39907096  0.93622862  0.23047525     0.12400
H2629       H  0.43190305  0.91261608  0.23722202     0.11800
H2630       H  0.42886560  0.91471896  0.26002751     0.12000
H2631       H  0.42849291  0.92056973  0.21587989     0.14800
H2632       H  0.40144197  0.93005755  0.21031348     0.13500
H2633       H  0.40602221  0.93783684  0.27500886     0.11200
H2634       H  0.41889233  0.91210592  0.27922347     0.13200
C2635       C  0.42270345  0.99372064  0.17329848     0.19300
C2636       C  0.42284786  0.00192834  0.18377584    -0.18800
C2637       C  0.42367266  0.01506018  0.18207559    -0.11000
C2638       C  0.42459134  0.02026945  0.16981341     0.21600
C2639       C  0.42424742  0.01208636  0.15931851    -0.20400
C2640       C  0.42318444  0.99895090  0.16101443    -0.11200
C2641       C  0.42731087  0.03396311  0.16779253    -0.15400
C2642       C  0.42329777  0.04310226  0.17569860    -0.29200
C2643       C  0.42347159  0.97982012  0.17556150    -0.03500
C2644       C  0.41893218  0.97100673  0.16747360    -0.40000
H2645       H  0.42264739  0.99813763  0.19333162     0.12700
H2646       H  0.42425011  0.02104367  0.19039993     0.12400
H2647       H  0.42510798  0.01585328  0.14979531     0.11800
H2648       H  0.42340280  0.99289992  0.15272817     0.12000
H2649       H  0.43304196  0.03656781  0.15961707     0.14800
H2650       H  0.41696133  0.04077857  0.18348687     0.13500
H2651       H  0.42800728  0.97671604  0.18432111     0.11200
H2652       H  0.41362818  0.97383343  0.15907099     0.13200
C2653       C  0.64051658  0.08844360  0.38971846     0.19300
C2654       C  0.62821556  0.09364206  0.39016519    -0.18800
C2655       C  0.61986739  0.09262982  0.37973980    -0.11000
C2656       C  0.62361897  0.08623960  0.36863119     0.21600
C2657       C  0.63593963  0.08114178  0.36819380    -0.20400
C2658       C  0.64427335  0.08221802  0.37854051    -0.11200
C2659       C  0.61484883  0.08373801  0.35767634    -0.15400
C2660       C  0.60376775  0.08978498  0.35545343    -0.29200
C2661       C  0.64876052  0.08858902  0.40135289    -0.03500
C2662       C  0.66153828  0.08738405  0.40097978    -0.40000
H2663       H  0.62497340  0.09831703  0.39869924     0.12700
H2664       H  0.61038616  0.09646516  0.38064062     0.12400
H2665       H  0.63906616  0.07603140  0.35987269     0.11800
H2666       H  0.65345722  0.07767319  0.37788044     0.12000
H2667       H  0.61768539  0.07637513  0.35107663     0.14800
H2668       H  0.60075464  0.09747539  0.36153539     0.13500
H2669       H  0.64410668  0.08923788  0.41052099     0.11200
H2670       H  0.66637636  0.08723956  0.39190615     0.13200
C2671       C  0.49102198  0.08394352  0.32959556     0.19300
C2672       C  0.49873811  0.07620888  0.33725455    -0.18800
C2673       C  0.51201222  0.07716608  0.33680285    -0.11000
C2674       C  0.51792083  0.08591511  0.32861182     0.21600
C2675       C  0.51021617  0.09370386  0.32098874    -0.20400
C2676       C  0.49691472  0.09279438  0.32149421    -0.11200
C2677       C  0.53199028  0.08649701  0.32702290    -0.15400
C2678       C  0.54038553  0.08220648  0.33570213    -0.29200
C2679       C  0.47700998  0.08168165  0.32962913    -0.03500
C2680       C  0.46824413  0.08998038  0.32539247    -0.40000
H2681       H  0.49447513  0.06919954  0.34344731     0.12700
H2682       H  0.51754540  0.07069062  0.34254328     0.12400
H2683       H  0.51451436  0.10038647  0.31445904     0.11800
H2684       H  0.49135576  0.09870430  0.31518800     0.12000
H2685       H  0.53557737  0.09045516  0.31819257     0.14800
H2686       H  0.53716635  0.07855337  0.34477134     0.13500
H2687       H  0.47374243  0.07264018  0.33337493     0.11200
H2688       H  0.47104343  0.09933922  0.32214517     0.13200
C2689       C  0.62998949  0.91949020  0.38356006     0.19300
C2690       C  0.63038711  0.92364338  0.37091373    -0.18800
C2691       C  0.61953931  0.92320165  0.36321130    -0.11000
C2692       C  0.60790537  0.91853932  0.36795190     0.21600
C2693       C  0.60753598  0.91417173  0.38056883    -0.20400
C2694       C  0.61846562  0.91457319  0.38829891    -0.11200
C2695       C  0.59586532  0.91915748  0.36035136    -0.15400
C2696       C  0.59569115  0.92013371  0.34759693    -0.29200
C2697       C  0.64140074  0.92183498  0.39167724    -0.03500
C2698       C  0.64387107  0.91613201  0.40286556    -0.40000
H2699       H  0.63906414  0.92762934  0.36706359     0.12700
H2700       H  0.62026843  0.92708996  0.35374541     0.12400
H2701       H  0.59869082  0.91069673  0.38454162     0.11800
H2702       H  0.61768602  0.91155270  0.39808401     0.12000
H2703       H  0.58689282  0.91928298  0.36545318     0.14800
H2704       H  0.60448697  0.91961848  0.34227904     0.13500
H2705       H  0.64812851  0.92889420  0.38825234     0.11200
H2706       H  0.63779219  0.90858135  0.40637886     0.13200
C2707       C  0.57411540  0.01734011  0.32981445     0.19300
C2708       C  0.57139074  0.00995296  0.34054742    -0.18800
C2709       C  0.56978896  0.99684065  0.33949384    -0.11000
C2710       C  0.57100840  0.99086034  0.32762280     0.21600
C2711       C  0.57382336  0.99828838  0.31692527    -0.20400
C2712       C  0.57537765  0.01136904  0.31797917    -0.11200
C2713       C  0.56989225  0.97695341  0.32584752    -0.15400
C2714       C  0.56601671  0.96866348  0.33475553    -0.29200
C2715       C  0.57608513  0.03115128  0.33135413    -0.03500
C2716       C  0.57384739  0.03951851  0.32199950    -0.40000
H2717       H  0.57050114  0.01435013  0.34978238     0.12700
H2718       H  0.56782939  0.99152894  0.34803816     0.12400
H2719       H  0.57495375  0.99393479  0.30769181     0.11800
H2720       H  0.57787273  0.01669592  0.30956404     0.12000
H2721       H  0.57235287  0.97332233  0.31652637     0.14800
H2722       H  0.56317162  0.97172088  0.34412674     0.13500
H2723       H  0.57904172  0.03458561  0.34063793     0.11200
H2724       H  0.57011469  0.03640179  0.31289594     0.13200
C2725       C  0.47613401  0.92260099  0.32800982     0.19300
C2726       C  0.48440820  0.91304034  0.32383102    -0.18800
C2727       C  0.49767038  0.91466339  0.32451659    -0.11000
C2728       C  0.50292354  0.92598553  0.32928695     0.21600
C2729       C  0.49467697  0.93547310  0.33355171    -0.20400
C2730       C  0.48147641  0.93381656  0.33298859    -0.11200
C2731       C  0.51681151  0.92878804  0.32897834    -0.15400
C2732       C  0.52604284  0.91997608  0.32955988    -0.29200
C2733       C  0.46212334  0.92117985  0.32584083    -0.03500
C2734       C  0.45334042  0.92820385  0.33187223    -0.40000
H2735       H  0.48059559  0.90440293  0.31976239     0.12700
H2736       H  0.50373997  0.90727824  0.32084156     0.12400
H2737       H  0.49846807  0.94434250  0.33710427     0.11800
H2738       H  0.47557365  0.94163306  0.33592732     0.12000
H2739       H  0.51956038  0.93872072  0.32852380     0.14800
H2740       H  0.52366214  0.91002984  0.33072241     0.13500
H2741       H  0.45898600  0.91456607  0.31856168     0.11200
H2742       H  0.45616881  0.93450480  0.33950949     0.13200
C2743       C  0.49732759  0.09019503  0.16744541     0.19300
C2744       C  0.50437656  0.09864332  0.17497056    -0.18800
C2745       C  0.51764866  0.09804194  0.17538214    -0.11000
C2746       C  0.52422546  0.08892155  0.16820078     0.21600
C2747       C  0.51716756  0.08082332  0.16025623    -0.20400
C2748       C  0.50387977  0.08145547  0.15982986    -0.11200
C2749       C  0.53826737  0.08710964  0.16903327    -0.15400
C2750       C  0.54594681  0.09351586  0.17703109    -0.29200
C2751       C  0.48321215  0.09062324  0.16812073    -0.03500
C2752       C  0.47570380  0.08065965  0.16533417    -0.40000
H2753       H  0.49957589  0.10555285  0.18082251     0.12700
H2754       H  0.52251920  0.10467291  0.18150374     0.12400
H2755       H  0.52193829  0.07381863  0.15449256     0.11800
H2756       H  0.49883947  0.07506485  0.15354798     0.12000
H2757       H  0.54240128  0.07969672  0.16321814     0.14800
H2758       H  0.54236170  0.10095423  0.18306427     0.13500
H2759       H  0.47891188  0.09905690  0.17215207     0.11200
H2760       H  0.47974347  0.07185670  0.16196140     0.13200
C2761       C  0.59466149  0.08997982  0.26954582     0.19300
C2762       C  0.60208434  0.08266980  0.26126026    -0.18800
C2763       C  0.60127962  0.08433382  0.24807264    -0.11000
C2764       C  0.59295992  0.09337548  0.24283050     0.21600
C2765       C  0.58590954  0.10101630  0.25111922    -0.20400
C2766       C  0.58675086  0.09939469  0.26429363    -0.11200
C2767       C  0.59017391  0.09411259  0.22894296    -0.15400
C2768       C  0.59772047  0.08946551  0.21972480    -0.29200
C2769       C  0.59434515  0.08646224  0.28330108    -0.03500
C2770       C  0.58890421  0.09350277  0.29246011    -0.40000
H2771       H  0.60818035  0.07528189  0.26498250     0.12700
H2772       H  0.60668188  0.07805518  0.24206526     0.12400
H2773       H  0.57934919  0.10797651  0.24736742     0.11800
H2774       H  0.58065820  0.10512187  0.27018331     0.12000
H2775       H  0.58111903  0.09827169  0.22622073     0.14800
H2776       H  0.60703258  0.08568745  0.22198122     0.13500
H2777       H  0.59810490  0.07722303  0.28586871     0.11200
H2778       H  0.58532875  0.10289661  0.29039178     0.13200
C2779       C  0.48754220  0.93524617  0.17177576     0.19300
C2780       C  0.49556747  0.94254298  0.16400156    -0.18800
C2781       C  0.50880379  0.94215758  0.16558045    -0.11000
C2782       C  0.51425590  0.93449945  0.17507978     0.21600
C2783       C  0.50622702  0.92730132  0.18290578    -0.20400
C2784       C  0.49303498  0.92763825  0.18129548    -0.11200
C2785       C  0.52814086  0.93424289  0.17770745    -0.15400
C2786       C  0.53717999  0.93740551  0.16925534    -0.29200
C2787       C  0.47351996  0.93634861  0.17016225    -0.03500
C2788       C  0.46519645  0.92753229  0.17424454    -0.40000
H2789       H  0.49157316  0.94863184  0.15673735     0.12700
H2790       H  0.51464998  0.94811859  0.15959572     0.12400
H2791       H  0.51017711  0.92147038  0.19040539     0.11800
H2792       H  0.48722876  0.92221027  0.18779108     0.12000
H2793       H  0.53107653  0.93089869  0.18703043     0.14800
H2794       H  0.53469990  0.94017357  0.15964629     0.13500
H2795       H  0.46991726  0.94471691  0.16534151     0.11200
H2796       H  0.46849728  0.91881586  0.17857413     0.13200
C2797       C  0.57453673  0.92798489  0.26627500     0.19300
C2798       C  0.58246572  0.93602588  0.25916775    -0.18800
C2799       C  0.58297299  0.93505617  0.24593291    -0.11000
C2800       C  0.57541794  0.92607018  0.23950485     0.21600
C2801       C  0.56762086  0.91791617  0.24663312    -0.20400
C2802       C  0.56722545  0.91878833  0.25987997    -0.11200
C2803       C  0.57436160  0.92583019  0.22542929    -0.15400
C2804       C  0.58334072  0.93031752  0.21748939    -0.29200
C2805       C  0.57322273  0.93027596  0.28012187    -0.03500
C2806       C  0.56956302  0.92138907  0.28855060    -0.40000
H2807       H  0.58806381  0.94328588  0.26385320     0.12700
H2808       H  0.58882573  0.94175264  0.24077885     0.12400
H2809       H  0.56156909  0.91104489  0.24190585     0.11800
H2810       H  0.56075429  0.91265321  0.26499095     0.12000
H2811       H  0.56557657  0.92203908  0.22143530     0.14800
H2812       H  0.59244784  0.93363436  0.22110810     0.13500
H2813       H  0.57545062  0.93974894  0.28353662     0.11200
H2814       H  0.56808522  0.91164524  0.28560169     0.13200
C2815       C  0.58680641  0.02262176  0.18104863     0.19300
C2816       C  0.59110060  0.01489537  0.17110480    -0.18800
C2817       C  0.58941317  0.00171451  0.17155886    -0.11000
C2818       C  0.58346814  0.99600439  0.18206329     0.21600
C2819       C  0.57942357  0.00370243  0.19210533    -0.20400
C2820       C  0.58116016  0.01682808  0.19168181    -0.11200
C2821       C  0.58049711  0.98224070  0.18261840    -0.15400
C2822       C  0.58695806  0.97317166  0.17640890    -0.29200
C2823       C  0.58841048  0.03663272  0.18009551    -0.03500
C2824       C  0.58074952  0.04483977  0.18612109    -0.40000
H2825       H  0.59551942  0.01909909  0.16283307     0.12700
H2826       H  0.59242223  0.99610602  0.16353595     0.12400
H2827       H  0.57486778  0.99953958  0.20031834     0.11800
H2828       H  0.57811879  0.02235771  0.19974689     0.12000
H2829       H  0.57268497  0.97941218  0.18874852     0.14800
H2830       H  0.59528045  0.97551840  0.17080176     0.13500
H2831       H  0.59571655  0.04030244  0.17379315     0.11200
H2832       H  0.57289117  0.04136684  0.19181904     0.13200
C2833       C  0.42295300  0.12438737  0.13635411     0.19300
C2834       C  0.42234493  0.13756782  0.13805232    -0.18800
C2835       C  0.42277707  0.14579566  0.12761645    -0.11000
C2836       C  0.42395779  0.14097347  0.11523586     0.21600
C2837       C  0.42436164  0.12780386  0.11352638    -0.20400
C2838       C  0.42382526  0.11958719  0.12392687    -0.11200
C2839       C  0.42625169  0.14928089  0.10407329    -0.15400
C2840       C  0.42275592  0.16151776  0.10333359    -0.29200
C2841       C  0.42422728  0.11607182  0.14771375    -0.03500
C2842       C  0.42195274  0.10351284  0.14755240    -0.40000
H2843       H  0.42190685  0.14152449  0.14751519     0.12700
H2844       H  0.42281189  0.15589640  0.12935233     0.12400
H2845       H  0.42547602  0.12385640  0.10411345     0.11800
H2846       H  0.42476183  0.10954610  0.12217275     0.12000
H2847       H  0.43132112  0.14512754  0.09613810     0.14800
H2848       H  0.41710825  0.16580260  0.11076120     0.13500
H2849       H  0.42794700  0.12035653  0.15634459     0.11200
H2850       H  0.41784233  0.09904042  0.13922436     0.13200
C2851       C  0.42064225  0.18164549  0.01596288     0.19300
C2852       C  0.41571062  0.19083989  0.00767600    -0.18800
C2853       C  0.41638800  0.18924454  0.99450952    -0.11000
C2854       C  0.42218927  0.17844335  0.98932160     0.21600
C2855       C  0.42707211  0.16921203  0.99760340    -0.20400
C2856       C  0.42624087  0.17072625  0.01077918    -0.11200
C2857       C  0.42443400  0.17716678  0.97544190    -0.15400
C2858       C  0.41700488  0.18256379  0.96651302    -0.29200
C2859       C  0.42121355  0.18447391  0.02978639    -0.03500
C2860       C  0.42221834  0.17555415  0.03887465    -0.40000
H2861       H  0.41159366  0.19945078  0.01141058     0.12700
H2862       H  0.41288862  0.19676658  0.98845083     0.12400
H2863       H  0.43179035  0.16092120  0.99385846     0.11800
H2864       H  0.43054482  0.16362560  0.01682744     0.12000
H2865       H  0.43270438  0.17177499  0.97248702     0.14800
H2866       H  0.40836283  0.18746668  0.96920206     0.13500
H2867       H  0.42147880  0.19440263  0.03252631     0.11200
H2868       H  0.42151145  0.16557841  0.03646244     0.13200
C2869       C  0.43274059  0.27108499  0.08141291     0.19300
C2870       C  0.44311814  0.26284692  0.08038143    -0.18800
C2871       C  0.44137674  0.24974154  0.08088725    -0.11000
C2872       C  0.42913783  0.24447781  0.08238673     0.21600
C2873       C  0.41870496  0.25270004  0.08342951    -0.20400
C2874       C  0.42047549  0.26589037  0.08304231    -0.11200
C2875       C  0.42702302  0.23051760  0.08171555    -0.15400
C2876       C  0.43609080  0.22217319  0.08507488    -0.29200
C2877       C  0.43509530  0.28487991  0.07960074    -0.03500
C2878       C  0.42739741  0.29411937  0.08379936    -0.40000
H2879       H  0.45262544  0.26657025  0.07891655     0.12700
H2880       H  0.44962217  0.24378382  0.07954649     0.12400
H2881       H  0.40916385  0.24890585  0.08435567     0.11800
H2882       H  0.41218729  0.27193006  0.08352199     0.12000
H2883       H  0.41805359  0.22706974  0.07784262     0.14800
H2884       H  0.44484384  0.22551762  0.08946259     0.13500
H2885       H  0.44370555  0.28755043  0.07455598     0.11200
H2886       H  0.41901054  0.29184891  0.08933616     0.13200
C2887       C  0.42735290  0.24600833  0.92038013     0.19300
C2888       C  0.43723584  0.25399877  0.91628571    -0.18800
C2889       C  0.43587300  0.26717403  0.91654244    -0.11000
C2890       C  0.42458980  0.27270137  0.92103883     0.21600
C2891       C  0.41467723  0.26472254  0.92511225    -0.20400
C2892       C  0.41598624  0.25151774  0.92471995    -0.11200
C2893       C  0.42347015  0.28664947  0.92281831    -0.15400
C2894       C  0.42999536  0.29517271  0.91584502    -0.29200
C2895       C  0.42971564  0.23211917  0.92106722    -0.03500
C2896       C  0.42044690  0.22326435  0.92127570    -0.40000
H2897       H  0.44616160  0.25003205  0.91310623     0.12700
H2898       H  0.44389910  0.27297590  0.91373888     0.12400
H2899       H  0.40598634  0.26872647  0.92884082     0.11800
H2900       H  0.40829069  0.24571939  0.92832480     0.12000
H2901       H  0.41740519  0.28997703  0.93045016     0.14800
H2902       H  0.43559564  0.29208494  0.90779671     0.13500
H2903       H  0.43958032  0.22906446  0.92155137     0.11200
H2904       H  0.41054427  0.22594280  0.92017690     0.13200
C2905       C  0.42498924  0.32585198  0.01352628     0.19300
C2906       C  0.43021419  0.31653979  0.00566330    -0.18800
C2907       C  0.43003360  0.31802249  0.99248782    -0.11000
C2908       C  0.42451094  0.32883599  0.98694592     0.21600
C2909       C  0.41861987  0.33776961  0.99477577    -0.20400
C2910       C  0.41888994  0.33633717  0.00795565    -0.11200
C2911       C  0.42467230  0.33102345  0.97306479    -0.15400
C2912       C  0.43399507  0.32663348  0.96560724    -0.29200
C2913       C  0.42620539  0.32447106  0.02747715    -0.03500
C2914       C  0.42741358  0.33453867  0.03517388    -0.40000
H2915       H  0.43472646  0.30826743  0.00973542     0.12700
H2916       H  0.43419237  0.31067173  0.98669451     0.12400
H2917       H  0.41405775  0.34602144  0.99070013     0.11800
H2918       H  0.41433361  0.34344649  0.01374772     0.12000
H2919       H  0.41723367  0.33689336  0.96895677     0.14800
H2920       H  0.44187467  0.32132720  0.96961908     0.13500
H2921       H  0.42706447  0.31498449  0.03140683     0.11200
H2922       H  0.42740968  0.34406148  0.03127379     0.13200
C2923       C  0.49395378  0.33784819  0.08524696     0.19300
C2924       C  0.50187469  0.33586229  0.09585391    -0.18800
C2925       C  0.51518679  0.33662292  0.09473197    -0.11000
C2926       C  0.52080105  0.33926527  0.08288582     0.21600
C2927       C  0.51282606  0.34135808  0.07237722    -0.20400
C2928       C  0.49963348  0.34059087  0.07349254    -0.11200
C2929       C  0.53477476  0.33923063  0.08054104    -0.15400
C2930       C  0.54389058  0.33591249  0.08893527    -0.29200
C2931       C  0.47990642  0.33607407  0.08632942    -0.03500
C2932       C  0.47166073  0.34171096  0.07831481    -0.40000
H2933       H  0.49775582  0.33360624  0.10498577     0.12700
H2934       H  0.52093924  0.33494476  0.10309215     0.12400
H2935       H  0.51682608  0.34325432  0.06310873     0.11800
H2936       H  0.49397320  0.34169357  0.06495927     0.12000
H2937       H  0.53768363  0.34124943  0.07085235     0.14800
H2938       H  0.54164061  0.33372235  0.09872445     0.13500
H2939       H  0.47632400  0.32966764  0.09356687     0.11200
H2940       H  0.47507699  0.34859932  0.07146986     0.13200
C2941       C  0.58082089  0.33022853  0.98763085     0.19300
C2942       C  0.58386516  0.31979296  0.99529792    -0.18800
C2943       C  0.58378406  0.32085127  0.00851654    -0.11000
C2944       C  0.58054417  0.33239087  0.01432603     0.21600
C2945       C  0.57744130  0.34280340  0.00664956    -0.20400
C2946       C  0.57761016  0.34177087  0.99343420    -0.11200
C2947       C  0.57940559  0.33361712  0.02829938    -0.15400
C2948       C  0.58595601  0.32637740  0.03652113    -0.29200
C2949       C  0.58048321  0.32859253  0.97366825    -0.03500
C2950       C  0.58241341  0.33820166  0.96552041    -0.40000
H2951       H  0.58620980  0.31077306  0.99104829     0.12700
H2952       H  0.58583529  0.31249847  0.01411293     0.12400
H2953       H  0.57473371  0.35172188  0.01089668     0.11800
H2954       H  0.57482654  0.34991320  0.98784142     0.12000
H2955       H  0.57299458  0.34079592  0.03194309     0.14800
H2956       H  0.59295174  0.31965817  0.03313991     0.13500
H2957       H  0.57904041  0.31907678  0.96997867     0.11200
H2958       H  0.58470854  0.34761798  0.96896137     0.13200
C2959       C  0.49448605  0.33987796  0.91648690     0.19300
C2960       C  0.50256141  0.33229463  0.90908695    -0.18800
C2961       C  0.51583592  0.33286487  0.91058950    -0.11000
C2962       C  0.52137699  0.34103987  0.91960509     0.21600
C2963       C  0.51335053  0.34875731  0.92685596    -0.20400
C2964       C  0.50011108  0.34825652  0.92530965    -0.11200
C2965       C  0.53528079  0.34100506  0.92257794    -0.15400
C2966       C  0.54447060  0.33735103  0.91446683    -0.29200
C2967       C  0.48038030  0.33790023  0.91546859    -0.03500
C2968       C  0.47161558  0.34506901  0.92138177    -0.40000
H2969       H  0.49856737  0.32564347  0.90232946     0.12700
H2970       H  0.52166200  0.32652517  0.90504037     0.12400
H2971       H  0.51734063  0.35504722  0.93395933     0.11800
H2972       H  0.49443410  0.35415601  0.93143561     0.12000
H2973       H  0.53807629  0.34417230  0.93200489     0.14800
H2974       H  0.54209538  0.33470903  0.90479174     0.13500
H2975       H  0.47709188  0.32964452  0.91020991     0.11200
H2976       H  0.47442283  0.35340088  0.92671105     0.13200
C2977       C  0.59881643  0.13759333  0.11606317     0.19300
C2978       C  0.59736439  0.12436741  0.11568332    -0.18800
C2979       C  0.59778273  0.11712268  0.12683489    -0.11000
C2980       C  0.59957345  0.12296689  0.13873211     0.21600
C2981       C  0.60146932  0.13616140  0.13904730    -0.20400
C2982       C  0.60115147  0.14339843  0.12787032    -0.11200
C2983       C  0.59801995  0.11594465  0.15099394    -0.15400
C2984       C  0.59850555  0.10322184  0.15214817    -0.29200
C2985       C  0.59619173  0.14505466  0.10430377    -0.03500
C2986       C  0.60022829  0.15702884  0.10231212    -0.40000
H2987       H  0.59542408  0.11965895  0.10675755     0.12700
H2988       H  0.59598629  0.10705428  0.12607825     0.12400
H2989       H  0.60274002  0.14096292  0.14804639     0.11800
H2990       H  0.60202313  0.15359149  0.12863820     0.12000
H2991       H  0.59570468  0.12151064  0.15934949     0.14800
H2992       H  0.60118574  0.09740925  0.14410770     0.13500
H2993       H  0.59021554  0.14058995  0.09713201     0.11200
H2994       H  0.60672376  0.16154238  0.10895925     0.13200
C2995       C  0.49695065  0.17476240  0.07467134     0.19300
C2996       C  0.50466132  0.17287271  0.08541204    -0.18800
C2997       C  0.51788212  0.17220919  0.08429308    -0.11000
C2998       C  0.52368748  0.17347087  0.07234779     0.21600
C2999       C  0.51597697  0.17488489  0.06154845    -0.20400
C3000       C  0.50274924  0.17553569  0.06265947    -0.11200
C3001       C  0.53770037  0.17336446  0.07075219    -0.15400
C3002       C  0.54585836  0.17669548  0.08002970    -0.29200
C3003       C  0.48296820  0.17573529  0.07648519    -0.03500
C3004       C  0.47491205  0.18035618  0.06769675    -0.40000
H3005       H  0.50044732  0.17201174  0.09473969     0.12700
H3006       H  0.52345840  0.17061455  0.09279373     0.12400
H3007       H  0.52021593  0.17566232  0.05222108     0.11800
H3008       H  0.49720837  0.17653533  0.05405677     0.12000
H3009       H  0.54140267  0.17126040  0.06137045     0.14800
H3010       H  0.54243358  0.17949476  0.08930137     0.13500
H3011       H  0.47918322  0.17293999  0.08566534     0.11200
H3012       H  0.47829118  0.18360755  0.05855347     0.13200
C3013       C  0.58703108  0.26683567  0.08360854     0.19300
C3014       C  0.59801810  0.25953997  0.08171945    -0.18800
C3015       C  0.59729965  0.24627535  0.08122730    -0.11000
C3016       C  0.58551560  0.24001932  0.08271941     0.21600
C3017       C  0.57465306  0.24733390  0.08509231    -0.20400
C3018       C  0.57538142  0.26052740  0.08561988    -0.11200
C3019       C  0.58381268  0.22603361  0.08158625    -0.15400
C3020       C  0.59315037  0.21760485  0.07938733    -0.29200
C3021       C  0.58797414  0.28093930  0.08324158    -0.03500
C3022       C  0.57795752  0.28836141  0.08039696    -0.40000
H3023       H  0.60714643  0.26413192  0.08030602     0.12700
H3024       H  0.60596129  0.24109781  0.07947640     0.12400
H3025       H  0.56547520  0.24281995  0.08645784     0.11800
H3026       H  0.56675745  0.26568502  0.08765634     0.12000
H3027       H  0.57411855  0.22246702  0.08237700     0.14800
H3028       H  0.60300127  0.22054577  0.07859908     0.13500
H3029       H  0.59728186  0.28528198  0.08456540     0.11200
H3030       H  0.56875657  0.28418370  0.07827509     0.13200
C3031       C  0.48908750  0.18038551  0.93346267     0.19300
C3032       C  0.49694565  0.18637577  0.94243725    -0.18800
C3033       C  0.51018370  0.18553936  0.94160379    -0.11000
C3034       C  0.51588412  0.17867242  0.93169810     0.21600
C3035       C  0.50800531  0.17223242  0.92303494    -0.20400
C3036       C  0.49474903  0.17306583  0.92387692    -0.11200
C3037       C  0.52992883  0.17800441  0.93003520    -0.15400
C3038       C  0.53810710  0.18638419  0.93521042    -0.29200
C3039       C  0.47508471  0.18186448  0.93460357    -0.03500
C3040       C  0.46690929  0.18020771  0.92488905    -0.40000
H3041       H  0.49282712  0.19185028  0.95006200     0.12700
H3042       H  0.51582176  0.19022819  0.94881609     0.12400
H3043       H  0.51212071  0.16667202  0.91547416     0.11800
H3044       H  0.48903762  0.16788409  0.91706696     0.12000
H3045       H  0.53363549  0.17070748  0.92380095     0.14800
H3046       H  0.53473375  0.19405770  0.94111485     0.13500
H3047       H  0.47140149  0.18498123  0.94370548     0.11200
H3048       H  0.47028359  0.17759411  0.91554419     0.13200
C3049       C  0.58577791  0.27260794  0.91926595     0.19300
C3050       C  0.57726723  0.26495135  0.91237269    -0.18800
C3051       C  0.57778837  0.25174778  0.91320788    -0.11000
C3052       C  0.58692414  0.24580456  0.92100181     0.21600
C3053       C  0.59555584  0.25345611  0.92777072    -0.20400
C3054       C  0.59501937  0.26667459  0.92694965    -0.11200
C3055       C  0.58735188  0.23181744  0.92303167    -0.15400
C3056       C  0.58001314  0.22335566  0.91680418    -0.29200
C3057       C  0.58413417  0.28662009  0.91855096    -0.03500
C3058       C  0.59168288  0.29514309  0.92440395    -0.40000
H3059       H  0.56999562  0.26921258  0.90644484     0.12700
H3060       H  0.57078338  0.24639714  0.90792411     0.12400
H3061       H  0.60263703  0.24918833  0.93391956     0.11800
H3062       H  0.60174041  0.27206274  0.93257507     0.12000
H3063       H  0.59366586  0.22835221  0.93045833     0.14800
H3064       H  0.57363360  0.22626495  0.90926201     0.13500
H3065       H  0.57593022  0.29009782  0.91329071     0.11200
H3066       H  0.59995783  0.29223355  0.92981495     0.13200
C3067       C  0.59306369  0.17844996  0.01349630     0.19300
C3068       C  0.59857511  0.18743680  0.00532305    -0.18800
C3069       C  0.59742018  0.18620069  0.99212694    -0.11000
C3070       C  0.59053719  0.17600242  0.98686934     0.21600
C3071       C  0.58526840  0.16689633  0.99504962    -0.20400
C3072       C  0.58655726  0.16804586  0.00820619    -0.11200
C3073       C  0.58717238  0.17538323  0.97317543    -0.15400
C3074       C  0.59369240  0.18116197  0.96382248    -0.29200
C3075       C  0.59298853  0.18090429  0.02738373    -0.03500
C3076       C  0.59212087  0.17169668  0.03620196    -0.40000
H3077       H  0.60347964  0.19562609  0.00917513     0.12700
H3078       H  0.60132603  0.19359105  0.98615187     0.12400
H3079       H  0.57975537  0.15906751  0.99125117     0.11800
H3080       H  0.58186667  0.16112924  0.01419187     0.12000
H3081       H  0.57852021  0.17023441  0.97074448     0.14800
H3082       H  0.60268365  0.18588725  0.96575014     0.13500
H3083       H  0.59340620  0.19072639  0.03044775     0.11200
H3084       H  0.59249191  0.16180198  0.03345012     0.13200
C3085       C  0.38796747  0.36873747  0.08968782     0.19300
C3086       C  0.37481357  0.36733692  0.08765764    -0.18800
C3087       C  0.36660368  0.37769156  0.08877564    -0.11000
C3088       C  0.37140411  0.38978573  0.09187433     0.21600
C3089       C  0.38451121  0.39109612  0.09428112    -0.20400
C3090       C  0.39270879  0.38070852  0.09325954    -0.11200
C3091       C  0.36342219  0.40143128  0.09110486    -0.15400
C3092       C  0.35060224  0.40137906  0.09139819    -0.29200
C3093       C  0.39651144  0.35798168  0.08645602    -0.03500
C3094       C  0.40854696  0.35671984  0.09076144    -0.40000
H3095       H  0.37092044  0.35827243  0.08474656     0.12700
H3096       H  0.35665976  0.37625802  0.08650245     0.12400
H3097       H  0.38850221  0.40030314  0.09651708     0.11800
H3098       H  0.40280835  0.38228605  0.09459443     0.12000
H3099       H  0.36833030  0.41035640  0.08944189     0.14800
H3100       H  0.34542114  0.39271202  0.09340745     0.13500
H3101       H  0.39282105  0.35099504  0.07980825     0.11200
H3102       H  0.41234135  0.36318468  0.09783054     0.13200
C3103       C  0.39262742  0.37608824  0.91673101     0.19300
C3104       C  0.39390552  0.38929569  0.91767958    -0.18800
C3105       C  0.38321324  0.39716205  0.91738489    -0.11000
C3106       C  0.37088026  0.39199758  0.91623523     0.21600
C3107       C  0.36957861  0.37877631  0.91522503    -0.20400
C3108       C  0.38031412  0.37089599  0.91540257    -0.11200
C3109       C  0.35925696  0.39999767  0.91749927    -0.15400
C3110       C  0.35911489  0.41255535  0.91513412    -0.29200
C3111       C  0.40421561  0.36810146  0.91838695    -0.03500
C3112       C  0.40519831  0.35601212  0.91442114    -0.40000
H3113       H  0.40322359  0.39354695  0.91893407     0.12700
H3114       H  0.38466864  0.40722777  0.91865425     0.12400
H3115       H  0.36021002  0.37451399  0.91458033     0.11800
H3116       H  0.37886105  0.36074903  0.91503397     0.12000
H3117       H  0.35069348  0.39548530  0.92113279     0.14800
H3118       H  0.36736253  0.41715719  0.91098786     0.13500
H3119       H  0.41226572  0.37235603  0.92333180     0.11200
H3120       H  0.39753231  0.35163676  0.90904233     0.13200
C3121       C  0.32944611  0.42562618  0.01614140     0.19300
C3122       C  0.31880019  0.42769643  0.00833591    -0.18800
C3123       C  0.31994264  0.42774648  0.99515949    -0.11000
C3124       C  0.33185744  0.42586499  0.98943877     0.21600
C3125       C  0.34246688  0.42344106  0.99719057    -0.20400
C3126       C  0.34132566  0.42336542  0.01041638    -0.11200
C3127       C  0.33354830  0.42639707  0.97546752    -0.15400
C3128       C  0.32566859  0.43288325  0.96778613    -0.29200
C3129       C  0.32755441  0.42621903  0.03009641    -0.03500
C3130       C  0.33676971  0.42468985  0.03884961    -0.40000
H3131       H  0.30952253  0.42933539  0.01244604     0.12700
H3132       H  0.31142292  0.42915804  0.98954963     0.12400
H3133       H  0.35171582  0.42183708  0.99300780     0.11800
H3134       H  0.34980810  0.42165313  0.01596358     0.12000
H3135       H  0.34190584  0.42190058  0.97145720     0.14800
H3136       H  0.31765059  0.43804084  0.97161097     0.13500
H3137       H  0.31801620  0.42842581  0.03335426     0.11200
H3138       H  0.34647058  0.42257858  0.03622269     0.13200
C3139       C  0.12522218  0.41355589  0.14106237     0.19300
C3140       C  0.12364100  0.41148361  0.12798428    -0.18800
C3141       C  0.13397025  0.41242127  0.11968383    -0.11000
C3142       C  0.14617534  0.41557449  0.12426270     0.21600
C3143       C  0.14785934  0.41733151  0.13738271    -0.20400
C3144       C  0.13753252  0.41624283  0.14572749    -0.11200
C3145       C  0.15687033  0.41847763  0.11545352    -0.15400
C3146       C  0.15798484  0.41321023  0.10386797    -0.29200
C3147       C  0.11361068  0.41461378  0.14909034    -0.03500
C3148       C  0.11355681  0.41402609  0.16186913    -0.40000
H3149       H  0.11426719  0.40959606  0.12409652     0.12700
H3150       H  0.13220164  0.41135078  0.10961630     0.12400
H3151       H  0.15711923  0.41992346  0.14113853     0.11800
H3152       H  0.13913663  0.41822613  0.15567836     0.12000
H3153       H  0.16387508  0.42546249  0.11849560     0.14800
H3154       H  0.15154478  0.40567639  0.10096865     0.13500
H3155       H  0.10474728  0.41678694  0.14420184     0.11200
H3156       H  0.12208998  0.41139547  0.16706210     0.13200
C3157       C  0.26930942  0.42237817  0.08317662     0.19300
C3158       C  0.26147033  0.41345297  0.07703539    -0.18800
C3159       C  0.24820504  0.41406781  0.07806979    -0.11000
C3160       C  0.24250970  0.42372145  0.08523257     0.21600
C3161       C  0.25033551  0.43248741  0.09156159    -0.20400
C3162       C  0.26357643  0.43183476  0.09059680    -0.11200
C3163       C  0.22856780  0.42590241  0.08512222    -0.15400
C3164       C  0.21975621  0.41690572  0.08275550    -0.29200
C3165       C  0.28324402  0.42216365  0.08070147    -0.03500
C3166       C  0.29197206  0.42836222  0.08776999    -0.40000
H3167       H  0.26561511  0.40616840  0.07113718     0.12700
H3168       H  0.24247453  0.40735611  0.07277214     0.12400
H3169       H  0.24616676  0.44011617  0.09698817     0.11800
H3170       H  0.26916031  0.43911726  0.09521934     0.12000
H3171       H  0.22542924  0.43555476  0.08681656     0.14800
H3172       H  0.22245650  0.40705674  0.08167594     0.13500
H3173       H  0.28643680  0.41681635  0.07250432     0.11200
H3174       H  0.28926998  0.43335060  0.09631997     0.13200
C3175       C  0.27224832  0.42652086  0.91742533     0.19300
C3176       C  0.26408688  0.41703186  0.92205003    -0.18800
C3177       C  0.25086671  0.41826768  0.92102142    -0.11000
C3178       C  0.24550691  0.42913281  0.91542421     0.21600
C3179       C  0.25367337  0.43851986  0.91059685    -0.20400
C3180       C  0.26689830  0.43723476  0.91153029    -0.11200
C3181       C  0.23161083  0.43172021  0.91588871    -0.15400
C3182       C  0.22261408  0.42270053  0.91725735    -0.29200
C3183       C  0.28609575  0.42560140  0.92023813    -0.03500
C3184       C  0.29517468  0.43197512  0.91385489    -0.40000
H3185       H  0.26794991  0.40879765  0.92681716     0.12700
H3186       H  0.24493045  0.41099916  0.92521670     0.12400
H3187       H  0.24979761  0.44707267  0.90644124     0.11800
H3188       H  0.27282349  0.44494730  0.90820012     0.12000
H3189       H  0.22871680  0.44159731  0.91566568     0.14800
H3190       H  0.22509500  0.41274053  0.91691770     0.13500
H3191       H  0.28887355  0.41976927  0.92829278     0.11200
H3192       H  0.29279970  0.43747916  0.90547957     0.13200
C3193       C  0.18365434  0.42079585  0.01509461     0.19300
C3194       C  0.19378280  0.41788452  0.00694508    -0.18800
C3195       C  0.19212541  0.41813210  0.99373591    -0.11000
C3196       C  0.18029838  0.42147648  0.98839096     0.21600
C3197       C  0.17018406  0.42436296  0.99654174    -0.20400
C3198       C  0.17179713  0.42398194  0.00972507    -0.11200
C3199       C  0.17854787  0.42350884  0.97451194    -0.15400
C3200       C  0.18567128  0.41799169  0.96549276    -0.29200
C3201       C  0.18601868  0.42143998  0.02903999    -0.03500
C3202       C  0.17678482  0.42004343  0.03777437    -0.40000
H3203       H  0.20306378  0.41561263  0.01081411     0.12700
H3204       H  0.20027237  0.41624374  0.98777379     0.12400
H3205       H  0.16105882  0.42720965  0.99268279     0.11800
H3206       H  0.16386546  0.42670544  0.01563740     0.12000
H3207       H  0.17126249  0.43022195  0.97161947     0.14800
H3208       H  0.19259257  0.41078734  0.96799779     0.13500
H3209       H  0.19572437  0.42319995  0.03222210     0.11200
H3210       H  0.16716811  0.41757240  0.03486968     0.13200
C3211       C  0.33958667  0.51734358  0.08758419     0.19300
C3212       C  0.34548142  0.50985413  0.07834031    -0.18800
C3213       C  0.34519338  0.49665058  0.07917875    -0.11000
C3214       C  0.33880752  0.49057926  0.08921721     0.21600
C3215       C  0.33326032  0.49802773  0.09871278    -0.20400
C3216       C  0.33354710  0.51128881  0.09787929    -0.11200
C3217       C  0.33748033  0.47654197  0.08967320    -0.15400
C3218       C  0.33621068  0.46971884  0.07897743    -0.29200
C3219       C  0.33924159  0.53130970  0.08560358    -0.03500
C3220       C  0.33697168  0.53981176  0.09482553    -0.40000
H3221       H  0.35023247  0.51423867  0.07034961     0.12700
H3222       H  0.34992133  0.49121584  0.07189394     0.12400
H3223       H  0.32829982  0.49357755  0.10654175     0.11800
H3224       H  0.32865616  0.51668020  0.10506358     0.12000
H3225       H  0.33661256  0.47188842  0.09883363     0.14800
H3226       H  0.33602171  0.47451264  0.06985885     0.13500
H3227       H  0.34090777  0.53474917  0.07602154     0.11200
H3228       H  0.33582159  0.53679582  0.10459120     0.13200
C3229       C  0.33683591  0.58424832  0.02618531     0.19300
C3230       C  0.34377686  0.57661588  0.01784258    -0.18800
C3231       C  0.34226165  0.57783569  0.00471970    -0.11000
C3232       C  0.33383392  0.58688031  0.99962595     0.21600
C3233       C  0.32712316  0.59472586  0.00796038    -0.20400
C3234       C  0.32866546  0.59352859  0.02108082    -0.11200
C3235       C  0.33121017  0.58795483  0.98579561    -0.15400
C3236       C  0.33881914  0.58314676  0.97680014    -0.29200
C3237       C  0.33825201  0.58203498  0.04006028    -0.03500
C3238       C  0.32985038  0.58618949  0.04865294    -0.40000
H3239       H  0.35015329  0.56942878  0.02149474     0.12700
H3240       H  0.34741509  0.57136476  0.99871601     0.12400
H3241       H  0.32061229  0.60178484  0.00430573     0.11800
H3242       H  0.32343013  0.59994801  0.02708027     0.12000
H3243       H  0.32255928  0.59280699  0.98290423     0.14800
H3244       H  0.34775031  0.57865932  0.97926497     0.13500
H3245       H  0.34617624  0.57623630  0.04327692     0.11200
H3246       H  0.32158237  0.59161501  0.04578899     0.13200
C3247       C  0.33789827  0.49722008  0.92349717     0.19300
C3248       C  0.32936062  0.50539692  0.91727062    -0.18800
C3249       C  0.33017572  0.51855611  0.91888748    -0.11000
C3250       C  0.33963001  0.52385792  0.92676882     0.21600
C3251       C  0.34839365  0.51573525  0.93268606    -0.20400
C3252       C  0.34764478  0.50260355  0.93100067    -0.11200
C3253       C  0.33988302  0.53755229  0.93014110    -0.15400
C3254       C  0.33470065  0.54688358  0.92307245    -0.29200
C3255       C  0.33600885  0.48323548  0.92216584    -0.03500
C3256       C  0.34155600  0.47449090  0.92969855    -0.40000
H3257       H  0.32177193  0.50156778  0.91141341     0.12700
H3258       H  0.32307020  0.52445679  0.91438477     0.12400
H3259       H  0.35576217  0.51956267  0.93881002     0.11800
H3260       H  0.35467919  0.49681082  0.93571726     0.12000
H3261       H  0.34428559  0.54000715  0.93917028     0.14800
H3262       H  0.33071733  0.54489415  0.91376735     0.13500
H3263       H  0.32911892  0.48002276  0.91512806     0.11200
H3264       H  0.34813353  0.47727290  0.93714571     0.13200
C3265       C  0.14025532  0.58944259  0.11620830     0.19300
C3266       C  0.14039786  0.59410949  0.12869542    -0.18800
C3267       C  0.12954794  0.59319823  0.13639871    -0.11000
C3268       C  0.11830777  0.58746651  0.13178334     0.21600
C3269       C  0.11816746  0.58289860  0.11927613    -0.20400
C3270       C  0.12894487  0.58386571  0.11158277    -0.11200
C3271       C  0.10692548  0.58500141  0.13989294    -0.15400
C3272       C  0.10435619  0.59098151  0.15089224    -0.29200
C3273       C  0.15232092  0.58924514  0.10874514    -0.03500
C3274       C  0.15253638  0.58801405  0.09603171    -0.40000
H3275       H  0.14902118  0.59822741  0.13259701     0.12700
H3276       H  0.13020384  0.59654299  0.14607739     0.12400
H3277       H  0.10974760  0.57826546  0.11551439     0.11800
H3278       H  0.12847324  0.57968258  0.10223338     0.12000
H3279       H  0.10034777  0.57770362  0.13665359     0.14800
H3280       H  0.11040723  0.59863597  0.15423066     0.13500
H3281       H  0.16127282  0.58924974  0.11396279     0.11200
H3282       H  0.14372643  0.58830071  0.09063129     0.13200
C3283       C  0.17585832  0.51447387  0.08060988     0.19300
C3284       C  0.16772998  0.50659485  0.07357759    -0.18800
C3285       C  0.16880362  0.49344737  0.07433329    -0.11000
C3286       C  0.17819147  0.48785067  0.08209874     0.21600
C3287       C  0.18611805  0.49577775  0.08939613    -0.20400
C3288       C  0.18498692  0.50895140  0.08867674    -0.11200
C3289       C  0.18048911  0.47394382  0.08248198    -0.15400
C3290       C  0.17360155  0.46533202  0.07597931    -0.29200
C3291       C  0.17540100  0.52829570  0.07825827    -0.03500
C3292       C  0.17947636  0.53700383  0.08662232    -0.40000
H3293       H  0.16067774  0.51064363  0.06725202     0.12700
H3294       H  0.16241643  0.48788724  0.06851247     0.12400
H3295       H  0.19345037  0.49177641  0.09542827     0.11800
H3296       H  0.19164506  0.51473968  0.09401150     0.12000
H3297       H  0.18845453  0.47064230  0.08821002     0.14800
H3298       H  0.16550960  0.46803381  0.07021302     0.13500
H3299       H  0.17173019  0.53141664  0.06911278     0.11200
H3300       H  0.18250239  0.53425670  0.09609390     0.13200
C3301       C  0.27087983  0.57695744  0.09181539     0.19300
C3302       C  0.26318432  0.56727419  0.08681807    -0.18800
C3303       C  0.24999523  0.56859618  0.08608347    -0.11000
C3304       C  0.24405793  0.57982707  0.09009338     0.21600
C3305       C  0.25169329  0.58939997  0.09552007    -0.20400
C3306       C  0.26500010  0.58802560  0.09634118    -0.11200
C3307       C  0.22996886  0.58159868  0.08883292    -0.15400
C3308       C  0.22302381  0.57534898  0.08003743    -0.29200
C3309       C  0.28492740  0.57531793  0.09099285    -0.03500
C3310       C  0.29384129  0.58190701  0.09750031    -0.40000
H3311       H  0.26742120  0.55860950  0.08334115     0.12700
H3312       H  0.24453078  0.56070713  0.08240923     0.12400
H3313       H  0.24738751  0.59808430  0.09883424     0.11800
H3314       H  0.27062705  0.59576788  0.10011310     0.12000
H3315       H  0.22526396  0.58820502  0.09514871     0.14800
H3316       H  0.22773280  0.56918606  0.07331876     0.13500
H3317       H  0.28813934  0.56815531  0.08433636     0.11200
H3318       H  0.29117687  0.58885071  0.10457819     0.13200
C3319       C  0.17976296  0.49257970  0.92548425     0.19300
C3320       C  0.17905344  0.50054836  0.91484083    -0.18800
C3321       C  0.17835776  0.51370673  0.91628644    -0.11000
C3322       C  0.17826772  0.51916667  0.92849244     0.21600
C3323       C  0.17862025  0.51112730  0.93911201    -0.20400
C3324       C  0.17933396  0.49800887  0.93765846    -0.11200
C3325       C  0.17783081  0.53307771  0.93076297    -0.15400
C3326       C  0.17887990  0.54199007  0.92168290    -0.29200
C3327       C  0.18053621  0.47865854  0.92360146    -0.03500
C3328       C  0.18576854  0.47084360  0.93223318    -0.40000
H3329       H  0.17916014  0.49658174  0.90536637     0.12700
H3330       H  0.17784597  0.51942407  0.90779367     0.12400
H3331       H  0.17837886  0.51501212  0.94861490     0.11800
H3332       H  0.17934434  0.49217883  0.94611434     0.12000
H3333       H  0.17693044  0.53616907  0.94056396     0.14800
H3334       H  0.17991462  0.53948447  0.91177646     0.13500
H3335       H  0.17693962  0.47475856  0.91473110     0.11200
H3336       H  0.18998085  0.47460069  0.94087467     0.13200
C3337       C  0.26744319  0.58545006  0.93047405     0.19300
C3338       C  0.25969878  0.59589018  0.92752417    -0.18800
C3339       C  0.24637806  0.59468103  0.92719841    -0.11000
C3340       C  0.24053429  0.58290965  0.92974073     0.21600
C3341       C  0.24833269  0.57245631  0.93240947    -0.20400
C3342       C  0.26157265  0.57366953  0.93275243    -0.11200
C3343       C  0.22647636  0.58079875  0.92958549    -0.15400
C3344       C  0.21752484  0.58988759  0.92872702    -0.29200
C3345       C  0.28157707  0.58698034  0.93071182    -0.03500
C3346       C  0.28927143  0.57934779  0.93751385    -0.40000
H3347       H  0.26397130  0.60503729  0.92554523     0.12700
H3348       H  0.24080254  0.60294967  0.92486617     0.12400
H3349       H  0.24415831  0.56323432  0.93423197     0.11800
H3350       H  0.26714801  0.56526044  0.93457614     0.12000
H3351       H  0.22328328  0.57103915  0.93055679     0.14800
H3352       H  0.22011160  0.59980496  0.92801701     0.13500
H3353       H  0.28573632  0.59484723  0.92548091     0.11200
H3354       H  0.28523459  0.57203313  0.94354427     0.13200
C3355       C  0.17345738  0.58507958  0.01713022     0.19300
C3356       C  0.16615682  0.57747376  0.00889922    -0.18800
C3357       C  0.16650953  0.57935982  0.99575435    -0.11000
C3358       C  0.17422163  0.58894096  0.99050694     0.21600
C3359       C  0.18125959  0.59675901  0.99873951    -0.20400
C3360       C  0.18086612  0.59491305  0.01189658    -0.11200
C3361       C  0.17630385  0.59011421  0.97658080    -0.15400
C3362       C  0.16811889  0.58576157  0.96771793    -0.29200
C3363       C  0.17395305  0.58159758  0.03084390    -0.03500
C3364       C  0.17914944  0.58879160  0.04009924    -0.40000
H3365       H  0.16046160  0.56975669  0.01262337     0.12700
H3366       H  0.16121357  0.57288552  0.98975716     0.12400
H3367       H  0.18738822  0.60410604  0.99494502     0.11800
H3368       H  0.18683164  0.60087161  0.01779049     0.12000
H3369       H  0.18524538  0.59430967  0.97351720     0.14800
H3370       H  0.15890015  0.58199155  0.97043777     0.13500
H3371       H  0.17012402  0.57236168  0.03339785     0.11200
H3372       H  0.18263172  0.59826820  0.03815849     0.13200
C3373       C  0.89012644  0.41305309  0.13655144     0.19300
C3374       C  0.87693032  0.41265106  0.13861840    -0.18800
C3375       C  0.86834069  0.41290165  0.12841999    -0.11000
C3376       C  0.87275804  0.41366070  0.11584589     0.21600
C3377       C  0.88595426  0.41382658  0.11374555    -0.20400
C3378       C  0.89455796  0.41346697  0.12394746    -0.11200
C3379       C  0.86393440  0.41582443  0.10493951    -0.15400
C3380       C  0.85155140  0.41242401  0.10495527    -0.29200
C3381       C  0.89881249  0.41445560  0.14772018    -0.03500
C3382       C  0.91141418  0.41216063  0.14742135    -0.40000
H3383       H  0.87323277  0.41252602  0.14819760     0.12700
H3384       H  0.85826227  0.41315439  0.13049181     0.12400
H3385       H  0.88962304  0.41461271  0.10418106     0.11800
H3386       H  0.90461080  0.41415898  0.12188776     0.12000
H3387       H  0.86768606  0.42090821  0.09677867     0.14800
H3388       H  0.84773007  0.40676653  0.11266698     0.13500
H3389       H  0.89469907  0.41804864  0.15645449     0.11200
H3390       H  0.91573282  0.40812094  0.13902189     0.13200
C3391       C  0.82675300  0.42220023  0.01834842     0.19300
C3392       C  0.81767783  0.41769276  0.00959877    -0.18800
C3393       C  0.81964448  0.41902569  0.99650833    -0.11000
C3394       C  0.83062204  0.42516285  0.99194549     0.21600
C3395       C  0.83965457  0.42970542  0.00068539    -0.20400
C3396       C  0.83782741  0.42813453  0.01373830    -0.11200
C3397       C  0.83241557  0.42793337  0.97824489    -0.15400
C3398       C  0.82878137  0.42000549  0.96890372    -0.29200
C3399       C  0.82390660  0.42173264  0.03216195    -0.03500
C3400       C  0.83300058  0.42112046  0.04119015    -0.40000
H3401       H  0.80897509  0.41328532  0.01291236     0.12700
H3402       H  0.81235024  0.41571110  0.98999755     0.12400
H3403       H  0.84808375  0.43462794  0.99739610     0.11800
H3404       H  0.84484000  0.43207476  0.02019456     0.12000
H3405       H  0.83725324  0.43671548  0.97578231     0.14800
H3406       H  0.82471766  0.41081057  0.97118571     0.13500
H3407       H  0.81396640  0.42212253  0.03498802     0.11200
H3408       H  0.84291395  0.41995210  0.03855157     0.13200
C3409       C  0.86785243  0.58439832  0.11845794     0.19300
C3410       C  0.86649882  0.58096678  0.13125230    -0.18800
C3411       C  0.87687946  0.58157011  0.13958769    -0.11000
C3412       C  0.88892202  0.58552257  0.13525048     0.21600
C3413       C  0.89025459  0.58905411  0.12247623    -0.20400
C3414       C  0.87982722  0.58858931  0.11416668    -0.11200
C3415       C  0.90046445  0.58468899  0.14342943    -0.15400
C3416       C  0.90007504  0.58535194  0.15616969    -0.29200
C3417       C  0.85703195  0.58212499  0.10961116    -0.03500
C3418       C  0.85559519  0.58815476  0.09844067    -0.40000
H3419       H  0.85744596  0.57749059  0.13473858     0.12700
H3420       H  0.87554932  0.57834376  0.14924096     0.12400
H3421       H  0.89946656  0.59189582  0.11884693     0.11800
H3422       H  0.88135298  0.59092726  0.10428609     0.12000
H3423       H  0.90950859  0.58286441  0.13880331     0.14800
H3424       H  0.89123759  0.58764459  0.16093888     0.13500
H3425       H  0.85013251  0.57489858  0.11228256     0.11200
H3426       H  0.86190714  0.59588586  0.09583058     0.13200
C3427       C  0.82578008  0.48823293  0.07787999     0.19300
C3428       C  0.82602255  0.49555106  0.06675515    -0.18800
C3429       C  0.82595060  0.50874205  0.06732665    -0.11000
C3430       C  0.82568534  0.51497808  0.07909588     0.21600
C3431       C  0.82507448  0.50772560  0.09024875    -0.20400
C3432       C  0.82518754  0.49447027  0.08968961    -0.11200
C3433       C  0.82566971  0.52900852  0.07990094    -0.15400
C3434       C  0.83142446  0.53633687  0.07117278    -0.29200
C3435       C  0.82594418  0.47421942  0.07648187    -0.03500
C3436       C  0.82670916  0.46588932  0.08611805    -0.40000
H3437       H  0.82626764  0.49104212  0.05752991     0.12700
H3438       H  0.82591370  0.51400991  0.05850962     0.12400
H3439       H  0.82465530  0.51233138  0.09941553     0.11800
H3440       H  0.82473636  0.48928418  0.09852122     0.12000
H3441       H  0.82109339  0.53339576  0.08800519     0.14800
H3442       H  0.83673655  0.53206885  0.06348430     0.13500
H3443       H  0.82541395  0.47052692  0.06686490     0.11200
H3444       H  0.82728748  0.46897450  0.09589760     0.13200
C3445       C  0.83461233  0.49084767  0.92302311     0.19300
C3446       C  0.82942146  0.49838708  0.91332676    -0.18800
C3447       C  0.83021291  0.51161484  0.91389396    -0.11000
C3448       C  0.83620061  0.51761734  0.92427129     0.21600
C3449       C  0.84142712  0.51005447  0.93393382    -0.20400
C3450       C  0.84064794  0.49684805  0.93335510    -0.11200
C3451       C  0.83648286  0.53162313  0.92594430    -0.15400
C3452       C  0.83334925  0.54009144  0.91690365    -0.29200
C3453       C  0.83276086  0.47687179  0.92246586    -0.03500
C3454       C  0.83993034  0.46856686  0.92901315    -0.40000
H3455       H  0.82457522  0.49402381  0.90535321     0.12700
H3456       H  0.82577655  0.51699161  0.90635656     0.12400
H3457       H  0.84593212  0.51439042  0.94211670     0.11800
H3458       H  0.84441241  0.49145722  0.94125120     0.12000
H3459       H  0.83917726  0.53514856  0.93527537     0.14800
H3460       H  0.83089431  0.53710170  0.90736415     0.13500
H3461       H  0.82511700  0.47328264  0.91645839     0.11200
H3462       H  0.84797129  0.47179311  0.93465663     0.13200
C3463       C  0.83454159  0.58934581  0.01184887     0.19300
C3464       C  0.82703380  0.59667904  0.00358183    -0.18800
C3465       C  0.82842536  0.59571175  0.99037059    -0.11000
C3466       C  0.83731189  0.58725641  0.98514124     0.21600
C3467       C  0.84497521  0.58013807  0.99342508    -0.20400
C3468       C  0.84364986  0.58116280  0.00658197    -0.11200
C3469       C  0.83797863  0.58445672  0.97128748    -0.15400
C3470       C  0.83334750  0.59193815  0.96197688    -0.29200
C3471       C  0.83171461  0.58933129  0.02572671    -0.03500
C3472       C  0.84010312  0.58545125  0.03461544    -0.40000
H3473       H  0.81982325  0.60291440  0.00735155     0.12700
H3474       H  0.82211126  0.60115049  0.98434682     0.12400
H3475       H  0.85176320  0.57342878  0.98969317     0.11800
H3476       H  0.84935522  0.57501609  0.01251806     0.12000
H3477       H  0.84221409  0.57546280  0.96864950     0.14800
H3478       H  0.82947549  0.60119262  0.96412475     0.13500
H3479       H  0.82218428  0.59200499  0.02864516     0.11200
H3480       H  0.84982820  0.58328385  0.03199860     0.13200
C3481       C  0.76957071  0.58464999  0.07481020     0.19300
C3482       C  0.76074386  0.58467128  0.06479442    -0.18800
C3483       C  0.74773466  0.58589962  0.06716979    -0.11000
C3484       C  0.74323082  0.58690615  0.07968702     0.21600
C3485       C  0.75206343  0.58691434  0.08973368    -0.20400
C3486       C  0.76514587  0.58594210  0.08732774    -0.11200
C3487       C  0.72935907  0.58648702  0.08242800    -0.15400
C3488       C  0.72063395  0.59135597  0.07443814    -0.29200
C3489       C  0.78311391  0.58205053  0.07191515    -0.03500
C3490       C  0.79294043  0.58669635  0.07869980    -0.40000
H3491       H  0.76391526  0.58349622  0.05509705     0.12700
H3492       H  0.74118809  0.58543536  0.05921912     0.12400
H3493       H  0.74881196  0.58744230  0.09945469     0.11800
H3494       H  0.77170335  0.58562698  0.09527691     0.12000
H3495       H  0.72624856  0.58143411  0.09086279     0.14800
H3496       H  0.72369419  0.59693663  0.06632892     0.13500
H3497       H  0.78506247  0.57623257  0.06364723     0.11200
H3498       H  0.79129100  0.59317747  0.08650514     0.13200
C3499       C  0.67980847  0.57387113  0.01297826     0.19300
C3500       C  0.69044210  0.57421618  0.00497568    -0.18800
C3501       C  0.68891959  0.57543309  0.99186379    -0.11000
C3502       C  0.67667686  0.57618664  0.98647489     0.21600
C3503       C  0.66602053  0.57505667  0.99438294    -0.20400
C3504       C  0.66754461  0.57399283  0.00754251    -0.11200
C3505       C  0.67480740  0.57778700  0.97261678    -0.15400
C3506       C  0.68297220  0.58443593  0.96538378    -0.29200
C3507       C  0.68199021  0.57352212  0.02688673    -0.03500
C3508       C  0.67366766  0.57802188  0.03541774    -0.40000
H3509       H  0.69998629  0.57385378  0.00891180     0.12700
H3510       H  0.69733202  0.57572391  0.98596977     0.12400
H3511       H  0.65650686  0.57527547  0.99039064     0.11800
H3512       H  0.65912069  0.57324490  0.01338768     0.12000
H3513       H  0.66638093  0.57358630  0.96830488     0.14800
H3514       H  0.69107855  0.58922097  0.96967153     0.13500
H3515       H  0.69124727  0.57027167  0.03018285     0.11200
H3516       H  0.66453552  0.58179282  0.03242993     0.13200
C3517       C  0.76863088  0.58487861  0.91603884     0.19300
C3518       C  0.76096067  0.59564738  0.91450722    -0.18800
C3519       C  0.74764438  0.59468672  0.91523181    -0.11000
C3520       C  0.74176514  0.58286016  0.91735660     0.21600
C3521       C  0.74944355  0.57206603  0.91842023    -0.20400
C3522       C  0.76267493  0.57301173  0.91763043    -0.11200
C3523       C  0.72783407  0.58135041  0.91942249    -0.15400
C3524       C  0.71883729  0.58953606  0.91544487    -0.29200
C3525       C  0.78277176  0.58621423  0.91624642    -0.03500
C3526       C  0.79011016  0.57832310  0.92310223    -0.40000
H3527       H  0.76529703  0.60487727  0.91318204     0.12700
H3528       H  0.74206302  0.60325422  0.91456805     0.12400
H3529       H  0.74517732  0.56282753  0.91997355     0.11800
H3530       H  0.76819517  0.56440200  0.91832764     0.12000
H3531       H  0.72481806  0.57286875  0.92447930     0.14800
H3532       H  0.72136225  0.59783412  0.90989818     0.13500
H3533       H  0.78714725  0.59406912  0.91117608     0.11200
H3534       H  0.78570057  0.57088883  0.92872126     0.13200
C3535       C  0.61874241  0.37247027  0.08889536     0.19300
C3536       C  0.61724681  0.38564907  0.08796913    -0.18800
C3537       C  0.62773145  0.39378350  0.08922596    -0.11000
C3538       C  0.64000552  0.38886763  0.09134164     0.21600
C3539       C  0.64144847  0.37571130  0.09253146    -0.20400
C3540       C  0.63096039  0.36758942  0.09135623    -0.11200
C3541       C  0.65163434  0.39689954  0.09052238    -0.15400
C3542       C  0.65167840  0.40955271  0.09200143    -0.29200
C3543       C  0.60769350  0.36409568  0.08594331    -0.03500
C3544       C  0.60686587  0.35192599  0.08969557    -0.40000
H3545       H  0.60798902  0.38964627  0.08589032     0.12700
H3546       H  0.62623646  0.40382399  0.08783795     0.12400
H3547       H  0.65080896  0.37166404  0.09391896     0.11800
H3548       H  0.63262085  0.35749246  0.09174129     0.12000
H3549       H  0.66037884  0.39225744  0.08764169     0.14800
H3550       H  0.64328985  0.41442432  0.09541359     0.13500
H3551       H  0.60007557  0.36803951  0.08015852     0.11200
H3552       H  0.61396632  0.34792419  0.09602371     0.13200
C3553       C  0.67985820  0.51907380  0.07788106     0.19300
C3554       C  0.67262279  0.51117295  0.06991724    -0.18800
C3555       C  0.67288060  0.49802992  0.07139968    -0.11000
C3556       C  0.68045790  0.49244232  0.08091386     0.21600
C3557       C  0.68780093  0.50033942  0.08881389    -0.20400
C3558       C  0.68749263  0.51352646  0.08736486    -0.11200
C3559       C  0.68164117  0.47846329  0.08226458    -0.15400
C3560       C  0.67303513  0.47016466  0.07765761    -0.29200
C3561       C  0.67968501  0.53292853  0.07540413    -0.03500
C3562       C  0.68293084  0.54186779  0.08395053    -0.40000
H3563       H  0.66682831  0.51518609  0.06241015     0.12700
H3564       H  0.66743374  0.49234013  0.06478015     0.12400
H3565       H  0.69390115  0.49627897  0.09605692     0.11800
H3566       H  0.69350323  0.51926630  0.09344037     0.12000
H3567       H  0.69006374  0.47485714  0.08707766     0.14800
H3568       H  0.66430063  0.47343284  0.07322839     0.13500
H3569       H  0.67642918  0.53592352  0.06606922     0.11200
H3570       H  0.68573440  0.53931762  0.09352848     0.13200
C3571       C  0.76545162  0.42103370  0.08866089     0.19300
C3572       C  0.75730742  0.42814526  0.09639819    -0.18800
C3573       C  0.74407716  0.42722034  0.09501745    -0.11000
C3574       C  0.73871759  0.41919802  0.08575209     0.21600
C3575       C  0.74685725  0.41187384  0.07822902    -0.20400
C3576       C  0.76006696  0.41273750  0.07966551    -0.11200
C3577       C  0.72493444  0.41935111  0.08253596    -0.15400
C3578       C  0.71576379  0.42366956  0.09026980    -0.29200
C3579       C  0.77937610  0.42358568  0.08921655    -0.03500
C3580       C  0.78828965  0.41554516  0.08490497    -0.40000
H3581       H  0.76120650  0.43473727  0.10326754     0.12700
H3582       H  0.73817609  0.43329296  0.10077316     0.12400
H3583       H  0.74299180  0.40577561  0.07090466     0.11800
H3584       H  0.76598080  0.40737228  0.07324993     0.12000
H3585       H  0.72229076  0.41624473  0.07305073     0.14800
H3586       H  0.71789316  0.42631679  0.09998983     0.13500
H3587       H  0.78238144  0.43272273  0.09295328     0.11200
H3588       H  0.78568983  0.40611485  0.08170892     0.13200
C3589       C  0.62425656  0.37562509  0.91397544     0.19300
C3590       C  0.62315370  0.38887852  0.91395759    -0.18800
C3591       C  0.63397371  0.39666594  0.91384063    -0.11000
C3592       C  0.64625623  0.39138573  0.91384365     0.21600
C3593       C  0.64740668  0.37813100  0.91374591    -0.20400
C3594       C  0.63655650  0.37031685  0.91373532    -0.11200
C3595       C  0.65786012  0.39943429  0.91548360    -0.15400
C3596       C  0.65847511  0.41164417  0.91176597    -0.29200
C3597       C  0.61243807  0.36782764  0.91548931    -0.03500
C3598       C  0.61162568  0.35533385  0.91298855    -0.40000
H3599       H  0.61385565  0.39325009  0.91435231     0.12700
H3600       H  0.63265157  0.40680950  0.91436624     0.12400
H3601       H  0.65674048  0.37380526  0.91398434     0.11800
H3602       H  0.63790924  0.36017501  0.91410817     0.12000
H3603       H  0.66590672  0.39534572  0.92053567     0.14800
H3604       H  0.65079208  0.41569149  0.90617472     0.13500
H3605       H  0.60409192  0.37256566  0.91925283     0.11200
H3606       H  0.61966159  0.35036505  0.90893779     0.13200
C3607       C  0.67257869  0.52384585  0.92090675     0.19300
C3608       C  0.66618450  0.51554077  0.92917977    -0.18800
C3609       C  0.66739066  0.50237765  0.92793457    -0.11000
C3610       C  0.67513300  0.49719605  0.91838733     0.21600
C3611       C  0.68127529  0.50549992  0.90994936    -0.20400
C3612       C  0.68001919  0.51864258  0.91115044    -0.11200
C3613       C  0.67815700  0.48340694  0.91770257    -0.15400
C3614       C  0.67122196  0.47416886  0.92322230    -0.29200
C3615       C  0.67227683  0.53773494  0.92353874    -0.03500
C3616       C  0.67561288  0.54679170  0.91511043    -0.40000
H3617       H  0.66051119  0.51925779  0.93686881     0.12700
H3618       H  0.66271938  0.49638744  0.93484600     0.12400
H3619       H  0.68740593  0.50180657  0.90260200     0.11800
H3620       H  0.68538475  0.52462365  0.90476400     0.12000
H3621       H  0.68678220  0.48078191  0.91269740     0.14800
H3622       H  0.66229648  0.47634398  0.92785979     0.13500
H3623       H  0.66952013  0.54060700  0.93304078     0.11200
H3624       H  0.67791695  0.54435257  0.90540090     0.13200
C3625       C  0.68302388  0.43265720  0.01496712     0.19300
C3626       C  0.69228407  0.43873534  0.00756653    -0.18800
C3627       C  0.69177291  0.43821569  0.99432800    -0.11000
C3628       C  0.68178432  0.43175166  0.98809318     0.21600
C3629       C  0.67254281  0.42560233  0.99550840    -0.20400
C3630       C  0.67309155  0.42607803  0.00878346    -0.11200
C3631       C  0.68068616  0.43111653  0.97397462    -0.15400
C3632       C  0.68739222  0.43856204  0.96603250    -0.29200
C3633       C  0.68397051  0.43378201  0.02902066    -0.03500
C3634       C  0.67776929  0.42623166  0.03724625    -0.40000
H3635       H  0.70004418  0.44385235  0.01205755     0.12700
H3636       H  0.69935337  0.44280651  0.98915551     0.12400
H3637       H  0.66475333  0.42053675  0.99100846     0.11800
H3638       H  0.66556964  0.42149294  0.01406721     0.12000
H3639       H  0.67388697  0.42442199  0.96995299     0.14800
H3640       H  0.69399606  0.44559892  0.96964209     0.13500
H3641       H  0.69025152  0.44109370  0.03277891     0.11200
H3642       H  0.67169403  0.41859885  0.03392513     0.13200
C3643       C  0.77085834  0.42940561  0.92043305     0.19300
C3644       C  0.76309786  0.43960047  0.91679397    -0.18800
C3645       C  0.74984794  0.43823117  0.91613527    -0.11000
C3646       C  0.74402001  0.42661933  0.91926288     0.21600
C3647       C  0.75178311  0.41637658  0.92276956    -0.20400
C3648       C  0.76506024  0.41770166  0.92327731    -0.11200
C3649       C  0.72994742  0.42538374  0.92052948    -0.15400
C3650       C  0.72152792  0.43261782  0.91414694    -0.29200
C3651       C  0.78475378  0.43169885  0.92221857    -0.03500
C3652       C  0.79367413  0.42256437  0.92200822    -0.40000
H3653       H  0.76728926  0.44875971  0.91472362     0.12700
H3654       H  0.74419443  0.44646153  0.91378550     0.12400
H3655       H  0.74753274  0.40740619  0.92544403     0.11800
H3656       H  0.77065835  0.40971278  0.92645159     0.12000
H3657       H  0.72641673  0.41863479  0.92749255     0.14800
H3658       H  0.72475831  0.43898761  0.90671780     0.13500
H3659       H  0.78777850  0.44144376  0.92374836     0.11200
H3660       H  0.79109191  0.41284214  0.91983370     0.13200
C3661       C  0.91694583  0.37706002  0.61165168     0.19300
C3662       C  0.91880483  0.39015242  0.61013279    -0.18800
C3663       C  0.91800414  0.39838989  0.62050327    -0.11000
C3664       C  0.91536590  0.39370989  0.63275643     0.21600
C3665       C  0.91313829  0.38065333  0.63420655    -0.20400
C3666       C  0.91391608  0.37241613  0.62382167    -0.11200
C3667       C  0.91629976  0.40177030  0.64438347    -0.15400
C3668       C  0.91696749  0.41452814  0.64423320    -0.29200
C3669       C  0.91950016  0.36853337  0.60065147    -0.03500
C3670       C  0.91561931  0.35636490  0.59997543    -0.40000
H3671       H  0.92127454  0.39399838  0.60092694     0.12700
H3672       H  0.92007910  0.40828666  0.61886575     0.12400
H3673       H  0.91123173  0.37672697  0.64351550     0.11800
H3674       H  0.91272682  0.36238777  0.62555878     0.12000
H3675       H  0.91732328  0.39691292  0.65343318     0.14800
H3676       H  0.91567439  0.41975430  0.63547775     0.13500
H3677       H  0.92524620  0.37233548  0.59297430     0.11200
H3678       H  0.90957412  0.35237997  0.60727663     0.13200
C3679       C  0.08930861  0.39327698  0.63925754     0.19300
C3680       C  0.09106750  0.38025135  0.64132470    -0.18800
C3681       C  0.09148082  0.37172651  0.63115509    -0.11000
C3682       C  0.08998787  0.37600337  0.61855506     0.21600
C3683       C  0.08836836  0.38905839  0.61648079    -0.20400
C3684       C  0.08797996  0.39758682  0.62665353    -0.11200
C3685       C  0.08962432  0.36729607  0.60734382    -0.15400
C3686       C  0.08888701  0.35455300  0.60810612    -0.29200
C3687       C  0.08825104  0.40181597  0.65052697    -0.03500
C3688       C  0.08867309  0.41457029  0.64996099    -0.40000
H3689       H  0.09207904  0.37661938  0.65089204     0.12700
H3690       H  0.09294965  0.36184232  0.63334302     0.12400
H3691       H  0.08713399  0.39267548  0.60692863     0.11800
H3692       H  0.08630036  0.40745725  0.62451496     0.12000
H3693       H  0.08909007  0.37164014  0.59799342     0.14800
H3694       H  0.08888937  0.34980358  0.61721592     0.13500
H3695       H  0.08680250  0.39736812  0.65971899     0.11200
H3696       H  0.09033504  0.41938260  0.64103456     0.13200
C3697       C  0.99157619  0.43633796  0.67130126     0.19300
C3698       C  0.99909498  0.44688238  0.67453897    -0.18800
C3699       C  0.01233258  0.44588779  0.67538850    -0.11000
C3700       C  0.01836918  0.43427924  0.67293754     0.21600
C3701       C  0.01090032  0.42382885  0.66931415    -0.20400
C3702       C  0.99763271  0.42479910  0.66854912    -0.11200
C3703       C  0.03242289  0.43287526  0.67357142    -0.15400
C3704       C  0.03993766  0.44017616  0.68092459    -0.29200
C3705       C  0.97752222  0.43790176  0.67079237    -0.03500
C3706       C  0.96912895  0.42829897  0.67194131    -0.40000
H3707       H  0.99469632  0.45592815  0.67651454     0.12700
H3708       H  0.01777924  0.45428702  0.67774084     0.12400
H3709       H  0.01534694  0.41485184  0.66714447     0.11800
H3710       H  0.99223013  0.41655703  0.66563243     0.12000
H3711       H  0.03670322  0.42538232  0.66797898     0.14800
H3712       H  0.03585924  0.44735487  0.68702072     0.13500
H3713       H  0.97391644  0.44752838  0.67027354     0.11200
H3714       H  0.97235214  0.41862126  0.67310905     0.13200
C3715       C  0.08711020  0.64158610  0.61557005     0.19300
C3716       C  0.09097594  0.62886777  0.61520653    -0.18800
C3717       C  0.09067532  0.62134958  0.62619791    -0.11000
C3718       C  0.08627319  0.62638855  0.63773116     0.21600
C3719       C  0.08248590  0.63911284  0.63808032    -0.20400
C3720       C  0.08297238  0.64665869  0.62718043    -0.11200
C3721       C  0.08411439  0.61839365  0.64916735    -0.15400
C3722       C  0.09070552  0.60781971  0.65197670    -0.29200
C3723       C  0.08603184  0.64893426  0.60354862    -0.03500
C3724       C  0.08670096  0.66166150  0.60317420    -0.40000
H3725       H  0.09396426  0.62466998  0.60633819     0.12700
H3726       H  0.09331318  0.61147624  0.62549292     0.12400
H3727       H  0.07883942  0.64315643  0.64677058     0.11800
H3728       H  0.07948599  0.65626851  0.62776758     0.12000
H3729       H  0.07655587  0.62132531  0.65552355     0.14800
H3730       H  0.09871661  0.60498514  0.64618350     0.13500
H3731       H  0.08394269  0.64374091  0.59488283     0.11200
H3732       H  0.08940648  0.66692744  0.61161225     0.13200
C3733       C  0.08884452  0.49734565  0.67069520     0.19300
C3734       C  0.08546163  0.50515883  0.66042969    -0.18800
C3735       C  0.08691031  0.51834184  0.66119366    -0.11000
C3736       C  0.09156285  0.52403685  0.67238991     0.21600
C3737       C  0.09533037  0.51617679  0.68248348    -0.20400
C3738       C  0.09393882  0.50300293  0.68169646    -0.11200
C3739       C  0.09202747  0.53805595  0.67422268    -0.15400
C3740       C  0.08431078  0.54610738  0.66797588    -0.29200
C3741       C  0.08590343  0.48353593  0.67007577    -0.03500
C3742       C  0.09215011  0.47471352  0.67691208    -0.40000
H3743       H  0.08153594  0.50105578  0.65184740     0.12700
H3744       H  0.08424683  0.52399863  0.65303833     0.12400
H3745       H  0.09891849  0.52027441  0.69121692     0.11800
H3746       H  0.09636498  0.49735373  0.68993201     0.12000
H3747       H  0.09785205  0.54171629  0.68195559     0.14800
H3748       H  0.07779096  0.54258040  0.66077893     0.13500
H3749       H  0.07814562  0.48055958  0.66389700     0.11200
H3750       H  0.10038101  0.47734829  0.68258673     0.13200
C3751       C  0.91282649  0.64298241  0.61261703     0.19300
C3752       C  0.91147276  0.64463278  0.62577740    -0.18800
C3753       C  0.91171541  0.63417646  0.63402161    -0.11000
C3754       C  0.91354017  0.62187463  0.62923076     0.21600
C3755       C  0.91478651  0.62026123  0.61607900    -0.20400
C3756       C  0.91436467  0.63064559  0.60785736    -0.11200
C3757       C  0.91585185  0.61075154  0.63760038    -0.15400
C3758       C  0.91169043  0.60960758  0.64963306    -0.29200
C3759       C  0.91411967  0.65425131  0.60420770    -0.03500
C3760       C  0.91122249  0.65398922  0.59174351    -0.40000
H3761       H  0.91053071  0.65405060  0.62970211     0.12700
H3762       H  0.91111226  0.63583052  0.64413569     0.12400
H3763       H  0.91646087  0.61093699  0.61216614     0.11800
H3764       H  0.91590792  0.62900831  0.59784395     0.12000
H3765       H  0.92172821  0.60325366  0.63370832     0.14800
H3766       H  0.90538917  0.61664497  0.65367079     0.13500
H3767       H  0.91821782  0.66280688  0.60827709     0.11200
H3768       H  0.90654545  0.64575091  0.58766947     0.13200
C3769       C  0.98996267  0.57969263  0.67322401     0.19300
C3770       C  0.99729643  0.57214647  0.68140092    -0.18800
C3771       C  0.01056596  0.57296710  0.68135822    -0.11000
C3772       C  0.01680329  0.58139726  0.67308055     0.21600
C3773       C  0.00948707  0.58874243  0.66469598    -0.20400
C3774       C  0.99620174  0.58794167  0.66475697    -0.11200
C3775       C  0.03087655  0.58251296  0.67260187    -0.15400
C3776       C  0.03861296  0.57915003  0.68222141    -0.29200
C3777       C  0.97589882  0.57837823  0.67364710    -0.03500
C3778       C  0.96780223  0.58728070  0.66943839    -0.40000
H3779       H  0.99273491  0.56558504  0.68787311     0.12700
H3780       H  0.01583806  0.56680067  0.68765424     0.12400
H3781       H  0.01407284  0.59515248  0.65807977     0.11800
H3782       H  0.99093613  0.59362170  0.65800961     0.12000
H3783       H  0.03502058  0.58664878  0.66409873     0.14800
H3784       H  0.03480212  0.57550997  0.69106163     0.13500
H3785       H  0.97203888  0.56995259  0.67818393     0.11200
H3786       H  0.97128319  0.59610811  0.66545766     0.13200
C3787       C  0.92468221  0.49595449  0.67020999     0.19300
C3788       C  0.92946323  0.50425143  0.66091983    -0.18800
C3789       C  0.92812824  0.51740686  0.66217428    -0.11000
C3790       C  0.92213083  0.52258869  0.67289876     0.21600
C3791       C  0.91747844  0.51428385  0.68224621    -0.20400
C3792       C  0.91864059  0.50112794  0.68089813    -0.11200
C3793       C  0.92159928  0.53653015  0.67521964    -0.15400
C3794       C  0.92190993  0.54537370  0.66596899    -0.29200
C3795       C  0.92710953  0.48209404  0.66901088    -0.03500
C3796       C  0.91966381  0.47304186  0.67421053    -0.40000
H3797       H  0.93437746  0.50054025  0.65271997     0.12700
H3798       H  0.93222662  0.52347050  0.65496606     0.12400
H3799       H  0.91305602  0.51800215  0.69071824     0.11800
H3800       H  0.91521710  0.49508121  0.68845451     0.12000
H3801       H  0.92112699  0.53963700  0.68503657     0.14800
H3802       H  0.92181077  0.54254691  0.65607075     0.13500
H3803       H  0.93541124  0.47924019  0.66360679     0.11200
H3804       H  0.91092913  0.47560377  0.67901927     0.13200
C3805       C  0.11965454  0.59435463  0.86807095     0.19300
C3806       C  0.13297365  0.59450869  0.86679161    -0.18800
C3807       C  0.14096185  0.59485378  0.87749091    -0.11000
C3808       C  0.13579402  0.59492927  0.88980298     0.21600
C3809       C  0.12248065  0.59505942  0.89107806    -0.20400
C3810       C  0.11449389  0.59482935  0.88037641    -0.11200
C3811       C  0.14381869  0.59327917  0.90142396    -0.15400
C3812       C  0.15642527  0.59569673  0.90201236    -0.29200
C3813       C  0.11157085  0.59231485  0.85651847    -0.03500
C3814       C  0.09909021  0.59523255  0.85572023    -0.40000
H3815       H  0.13722926  0.59398828  0.85746606     0.12700
H3816       H  0.15113779  0.59439873  0.87603689     0.12400
H3817       H  0.11822242  0.59493027  0.90042358     0.11800
H3818       H  0.10431617  0.59438657  0.88184043     0.12000
H3819       H  0.13919455  0.58927351  0.90972853     0.14800
H3820       H  0.16125551  0.60018695  0.89410882     0.13500
H3821       H  0.11607127  0.58790081  0.84838382     0.11200
H3822       H  0.09447611  0.60018428  0.86344404     0.13200
C3823       C  0.08745764  0.58891281  0.73975486     0.19300
C3824       C  0.09487585  0.58187903  0.74833955    -0.18800
C3825       C  0.09289104  0.58275032  0.76146182    -0.11000
C3826       C  0.08332627  0.59066547  0.76634991     0.21600
C3827       C  0.07599262  0.59780469  0.75776884    -0.20400
C3828       C  0.07804190  0.59700150  0.74465063    -0.11200
C3829       C  0.07999480  0.59091249  0.78013309    -0.15400
C3830       C  0.08786773  0.58711000  0.78953992    -0.29200
C3831       C  0.08880407  0.58648423  0.72585071    -0.03500
C3832       C  0.08480120  0.59452754  0.71673680    -0.40000
H3833       H  0.10204000  0.57542024  0.74485889     0.12700
H3834       H  0.09852059  0.57679459  0.76763587     0.12400
H3835       H  0.06844282  0.60383271  0.76121236     0.11800
H3836       H  0.07182829  0.60229263  0.73840775     0.12000
H3837       H  0.07051693  0.59415617  0.78260969     0.14800
H3838       H  0.09752580  0.58424435  0.78744820     0.13500
H3839       H  0.09271925  0.57739813  0.72302637     0.11200
H3840       H  0.08128452  0.60383716  0.71927221     0.13200
C3841       C  0.86785898  0.59460231  0.88053595     0.19300
C3842       C  0.86568276  0.59311844  0.86742312    -0.18800
C3843       C  0.87589263  0.59244209  0.85889310    -0.11000
C3844       C  0.88851391  0.59320986  0.86335003     0.21600
C3845       C  0.89067862  0.59520183  0.87632419    -0.20400
C3846       C  0.88052312  0.59610328  0.88478520    -0.11200
C3847       C  0.89964054  0.59063771  0.85510887    -0.15400
C3848       C  0.90015618  0.59334296  0.84263854    -0.29200
C3849       C  0.85682894  0.59368075  0.88946165    -0.03500
C3850       C  0.85816324  0.59162357  0.90203523    -0.40000
H3851       H  0.85607016  0.59198780  0.86381733     0.12700
H3852       H  0.87390722  0.59069682  0.84895750     0.12400
H3853       H  0.90030398  0.59587680  0.87996519     0.11800
H3854       H  0.88280409  0.59776306  0.89466759     0.12000
H3855       H  0.90785438  0.58625638  0.85960970     0.14800
H3856       H  0.89240990  0.59836692  0.83802132     0.13500
H3857       H  0.84729549  0.59343201  0.88538604     0.11200
H3858       H  0.86753461  0.59118764  0.90635257     0.13200
C3859       C  0.91740026  0.58962117  0.73353580     0.19300
C3860       C  0.91124254  0.58053043  0.74109640    -0.18800
C3861       C  0.91241371  0.58074282  0.75434197    -0.11000
C3862       C  0.91983398  0.59012529  0.76042784     0.21600
C3863       C  0.92549202  0.59956830  0.75288449    -0.20400
C3864       C  0.92428226  0.59937218  0.73963292    -0.11200
C3865       C  0.92223918  0.59032170  0.77445132    -0.15400
C3866       C  0.91871528  0.58101360  0.78248460    -0.29200
C3867       C  0.91669148  0.58828730  0.71941620    -0.03500
C3868       C  0.92498370  0.59380756  0.71138701    -0.40000
H3869       H  0.90572500  0.57301593  0.73671824     0.12700
H3870       H  0.90754871  0.57342584  0.75960898     0.12400
H3871       H  0.93107627  0.60704447  0.75724725     0.11800
H3872       H  0.92881491  0.60686673  0.73428543     0.12000
H3873       H  0.92771145  0.59822407  0.77825455     0.14800
H3874       H  0.91353070  0.57280401  0.77910757     0.13500
H3875       H  0.90977428  0.58162628  0.71555714     0.11200
H3876       H  0.93244295  0.59997153  0.71497582     0.13200
C3877       C  0.01503922  0.59153185  0.82926290     0.19300
C3878       C  0.00613387  0.58743773  0.83829333    -0.18800
C3879       C  0.99305122  0.58866244  0.83604100    -0.11000
C3880       C  0.98854884  0.59384614  0.82455837     0.21600
C3881       C  0.99746939  0.59813308  0.81559851    -0.20400
C3882       C  0.01058278  0.59710433  0.81795401    -0.11200
C3883       C  0.97479119  0.59336727  0.82101988    -0.15400
C3884       C  0.96526917  0.59303629  0.82955386    -0.29200
C3885       C  0.02871602  0.58844694  0.83127002    -0.03500
C3886       C  0.03844099  0.59529207  0.82651123    -0.40000
H3887       H  0.00931312  0.58294213  0.84698129     0.12700
H3888       H  0.98652670  0.58488362  0.84302538     0.12400
H3889       H  0.99427663  0.60195720  0.80659373     0.11800
H3890       H  0.01717267  0.60005402  0.81063985     0.12000
H3891       H  0.97247600  0.59253775  0.81098745     0.14800
H3892       H  0.96729345  0.59441000  0.83957245     0.13500
H3893       H  0.03084416  0.58002675  0.83682658     0.11200
H3894       H  0.03661706  0.60413942  0.82157312     0.13200
C3895       C  0.14156359  0.42136035  0.88685659     0.19300
C3896       C  0.14182572  0.41679829  0.87432849    -0.18800
C3897       C  0.13096062  0.41735817  0.86652411    -0.11000
C3898       C  0.11954093  0.42263061  0.87105281     0.21600
C3899       C  0.11924742  0.42698879  0.88364992    -0.20400
C3900       C  0.13006429  0.42636985  0.89145220    -0.11200
C3901       C  0.10813481  0.42488289  0.86278213    -0.15400
C3902       C  0.10619432  0.41973577  0.85120028    -0.29200
C3903       C  0.15364353  0.42184017  0.89444824    -0.03500
C3904       C  0.15394891  0.42252528  0.90722999    -0.40000
H3905       H  0.15056025  0.41302680  0.87046902     0.12700
H3906       H  0.13176702  0.41410711  0.85683547     0.12400
H3907       H  0.11067591  0.43123302  0.88739310     0.11800
H3908       H  0.12947747  0.43035194  0.90088340     0.12000
H3909       H  0.10107145  0.43148420  0.86632833     0.14800
H3910       H  0.11272766  0.41276243  0.84745716     0.13500
H3911       H  0.16259012  0.42193871  0.88929579     0.11200
H3912       H  0.14516976  0.42182552  0.91257951     0.13200
C3913       C  0.08357357  0.42414140  0.73990306     0.19300
C3914       C  0.07543662  0.41706526  0.74776156    -0.18800
C3915       C  0.07660317  0.41760932  0.76100917    -0.11000
C3916       C  0.08590894  0.42539562  0.76673745     0.21600
C3917       C  0.09420417  0.43227869  0.75884160    -0.20400
C3918       C  0.09309075  0.43165982  0.74560004    -0.11200
C3919       C  0.08657721  0.42760015  0.78073761    -0.15400
C3920       C  0.08050563  0.42058844  0.78958111    -0.29200
C3921       C  0.08095880  0.42454076  0.72598952    -0.03500
C3922       C  0.08970717  0.42761440  0.71716869    -0.40000
H3923       H  0.06792692  0.41132846  0.74363314     0.12700
H3924       H  0.06982711  0.41232612  0.76663475     0.12400
H3925       H  0.10136208  0.43846480  0.76294147     0.11800
H3926       H  0.09931762  0.43754184  0.73991230     0.12000
H3927       H  0.09208568  0.43575533  0.78390579     0.14800
H3928       H  0.07528121  0.41210384  0.78695520     0.13500
H3929       H  0.07124934  0.42258080  0.72292871     0.11200
H3930       H  0.09958618  0.42908680  0.71987580     0.13200
C3931       C  0.07279676  0.52048023  0.82486923     0.19300
C3932       C  0.07973704  0.51267113  0.81668583    -0.18800
C3933       C  0.07952857  0.49951250  0.81814914    -0.11000
C3934       C  0.07226525  0.49382847  0.82782324     0.21600
C3935       C  0.06507404  0.50162085  0.83583568    -0.20400
C3936       C  0.06535990  0.51481687  0.83442710    -0.11200
C3937       C  0.07145661  0.47982758  0.82933232    -0.15400
C3938       C  0.08061940  0.47191532  0.82535150    -0.29200
C3939       C  0.07331952  0.53442212  0.82289194    -0.03500
C3940       C  0.07152523  0.54287341  0.83224785    -0.40000
H3941       H  0.08537788  0.51677528  0.80913398     0.12700
H3942       H  0.08482561  0.49385248  0.81146171     0.12400
H3943       H  0.05921352  0.49748244  0.84320236     0.11800
H3944       H  0.05955826  0.52050410  0.84066517     0.12000
H3945       H  0.06310420  0.47591570  0.83399574     0.14800
H3946       H  0.08937700  0.47562633  0.82135769     0.13500
H3947       H  0.07600471  0.53784525  0.81353561     0.11200
H3948       H  0.06958568  0.53969537  0.84184712     0.13200
C3949       C  0.89222892  0.41826043  0.86905638     0.19300
C3950       C  0.89423734  0.41913105  0.88223229    -0.18800
C3951       C  0.88398889  0.41884454  0.89071662    -0.11000
C3952       C  0.87139136  0.41774552  0.88621109     0.21600
C3953       C  0.86939462  0.41662239  0.87305713    -0.20400
C3954       C  0.87965251  0.41682494  0.86457475    -0.11200
C3955       C  0.86010958  0.41911965  0.89470110    -0.15400
C3956       C  0.86037203  0.41734368  0.90738630    -0.29200
C3957       C  0.90330991  0.42022055  0.86038648    -0.03500
C3958       C  0.90336626  0.41739044  0.84789136    -0.40000
H3959       H  0.90377422  0.42040820  0.88597395     0.12700
H3960       H  0.88598567  0.42008935  0.90071674     0.12400
H3961       H  0.85981304  0.41593490  0.86929042     0.11800
H3962       H  0.87757726  0.41643422  0.85451958     0.12000
H3963       H  0.85126071  0.42220645  0.89031357     0.14800
H3964       H  0.86889732  0.41380249  0.91200636     0.13500
H3965       H  0.91173713  0.42467293  0.86445908     0.11200
H3966       H  0.89533517  0.41254113  0.84355145     0.13200
C3967       C  0.93036369  0.42669694  0.73581270     0.19300
C3968       C  0.94099104  0.42902001  0.74361013    -0.18800
C3969       C  0.94024154  0.42768860  0.75677170    -0.11000
C3970       C  0.92872523  0.42413253  0.76258011     0.21600
C3971       C  0.91819886  0.42130000  0.75478570    -0.20400
C3972       C  0.91895437  0.42260893  0.74154024    -0.11200
C3973       C  0.92738201  0.42345741  0.77667463    -0.15400
C3974       C  0.93490582  0.43012312  0.78463607    -0.29200
C3975       C  0.93180958  0.42900127  0.72191018    -0.03500
C3976       C  0.92283872  0.42694605  0.71294531    -0.40000
H3977       H  0.94995727  0.43198617  0.73950782     0.12700
H3978       H  0.94876227  0.42942904  0.76229799     0.12400
H3979       H  0.90925906  0.41837050  0.75897998     0.11800
H3980       H  0.91053809  0.42061174  0.73596352     0.12000
H3981       H  0.91956928  0.41793245  0.78056624     0.14800
H3982       H  0.94227672  0.43628070  0.78090660     0.13500
H3983       H  0.94094425  0.43275773  0.71886112     0.11200
H3984       H  0.91359882  0.42307735  0.71534307     0.13200
C3985       C  0.92597065  0.51857907  0.82849248     0.19300
C3986       C  0.91528081  0.51079471  0.82643030    -0.18800
C3987       C  0.91618903  0.49761733  0.82750513    -0.11000
C3988       C  0.92787859  0.49193416  0.83066248     0.21600
C3989       C  0.93844577  0.49972315  0.83314090    -0.20400
C3990       C  0.93754433  0.51287828  0.83207277    -0.11200
C3991       C  0.92957349  0.47799336  0.83142159    -0.15400
C3992       C  0.92200719  0.46958500  0.82544096    -0.29200
C3993       C  0.92453679  0.53253499  0.82701514    -0.03500
C3994       C  0.93437999  0.54068340  0.82605951    -0.40000
H3995       H  0.90619690  0.51491938  0.82388624     0.12700
H3996       H  0.90770176  0.49198810  0.82593698     0.12400
H3997       H  0.94750953  0.49560067  0.83576940     0.11800
H3998       H  0.94593945  0.51844227  0.83419751     0.12000
H3999       H  0.93798502  0.47454336  0.83636837     0.14800
H4000       H  0.91383648  0.47268177  0.81994120     0.13500
H4001       H  0.91491700  0.53623207  0.82625066     0.11200
H4002       H  0.94412568  0.53736942  0.82618339     0.13200
C4003       C  0.01712670  0.42157198  0.83160700     0.19300
C4004       C  0.00877959  0.41786678  0.82182157    -0.18800
C4005       C  0.99557742  0.41804151  0.82356484    -0.11000
C4006       C  0.99037658  0.42208127  0.83514068     0.21600
C4007       C  0.99869147  0.42547616  0.84505606    -0.20400
C4008       C  0.01193085  0.42512355  0.84337699    -0.11200
C4009       C  0.97648354  0.42447104  0.83644934    -0.15400
C4010       C  0.96748055  0.41768446  0.83031905    -0.29200
C4011       C  0.03095040  0.42290402  0.82864091    -0.03500
C4012       C  0.04035973  0.42369181  0.83735551    -0.59200
H4013       H  0.01248229  0.41521526  0.81262087     0.12700
H4014       H  0.98946675  0.41569374  0.81559723     0.12400
H4015       H  0.99491703  0.42878800  0.85400443     0.11800
H4016       H  0.01797579  0.42829201  0.85109053     0.12000
H4017       H  0.97363457  0.43253420  0.84217005     0.14800
H4018       H  0.97010017  0.40921198  0.82512419     0.13500
H4019       H  0.03348484  0.42350695  0.81865709     0.11200
H4020       H  0.03834995  0.42247850  0.84737957     0.13200
C4021       C  0.36880392  0.62595729  0.92184186     0.19300
C4022       C  0.38180530  0.62421545  0.91928734    -0.18800
C4023       C  0.39033516  0.63446950  0.91921857    -0.11000
C4024       C  0.38609157  0.64686657  0.92174910     0.21600
C4025       C  0.37296934  0.64870081  0.92358455    -0.20400
C4026       C  0.36442788  0.63843894  0.92362570    -0.11200
C4027       C  0.39491547  0.65801007  0.92325929    -0.15400
C4028       C  0.40775534  0.65733835  0.92304891    -0.29200
C4029       C  0.36052129  0.61442783  0.92331837    -0.03500
C4030       C  0.34817198  0.61457024  0.92682355    -0.40000
H4031       H  0.38549183  0.61478538  0.91770199     0.12700
H4032       H  0.40022996  0.63245108  0.91745054     0.12400
H4033       H  0.36932439  0.65810735  0.92538410     0.11800
H4034       H  0.35451893  0.64042808  0.92539133     0.12000
H4035       H  0.39063137  0.66709730  0.92543959     0.14800
H4036       H  0.41247828  0.64846463  0.92115468     0.13500
H4037       H  0.36507934  0.60527241  0.92224847     0.11200
H4038       H  0.34321293  0.62342765  0.92814510     0.13200
C4039       C  0.39574842  0.63766164  0.09428019     0.19300
C4040       C  0.39689650  0.62465236  0.09679521    -0.18800
C4041       C  0.38611682  0.61679421  0.09725930    -0.11000
C4042       C  0.37385874  0.62177598  0.09511916     0.21600
C4043       C  0.37271514  0.63482903  0.09277298    -0.20400
C4044       C  0.38348233  0.64268389  0.09235325    -0.11200
C4045       C  0.36220805  0.61364613  0.09408888    -0.15400
C4046       C  0.36152295  0.60144101  0.09784226    -0.29200
C4047       C  0.40753644  0.64545980  0.09272825    -0.03500
C4048       C  0.40775472  0.65815526  0.09387867    -0.40000
H4049       H  0.40621201  0.62049484  0.09816505     0.12700
H4050       H  0.38757227  0.60678271  0.09880518     0.12400
H4051       H  0.36345429  0.63893389  0.09092309     0.11800
H4052       H  0.38213328  0.65256208  0.08999378     0.12000
H4053       H  0.35390003  0.61781330  0.08955901     0.14800
H4054       H  0.36946880  0.59699373  0.10265420     0.13500
H4055       H  0.41629419  0.64058166  0.09034195     0.11200
H4056       H  0.39925559  0.66318583  0.09671055     0.13200
C4057       C  0.43522759  0.67644043  0.02237667     0.19300
C4058       C  0.42437418  0.67397302  0.01494762    -0.18800
C4059       C  0.42493081  0.67463512  0.00169615    -0.11000
C4060       C  0.43643220  0.67768623  0.99558743     0.21600
C4061       C  0.44738091  0.67973065  0.00299578    -0.20400
C4062       C  0.44680477  0.67916637  0.01624475    -0.11200
C4063       C  0.43744693  0.67853284  0.98154619    -0.15400
C4064       C  0.42763037  0.68173520  0.97396619    -0.29200
C4065       C  0.43417263  0.67577512  0.03643514    -0.03500
C4066       C  0.44202972  0.68206258  0.04435642    -0.40000
H4067       H  0.41540327  0.67162938  0.01941857     0.12700
H4068       H  0.41638958  0.67256929  0.99628927     0.12400
H4069       H  0.45639833  0.68188003  0.99851413     0.11800
H4070       H  0.45549213  0.68067188  0.02160069     0.12000
H4071       H  0.44678406  0.67717407  0.97736475     0.14800
H4072       H  0.41841492  0.68395556  0.97798302     0.13500
H4073       H  0.42630751  0.67036614  0.04039110     0.11200
H4074       H  0.44950580  0.68811809  0.04064957     0.13200
C4075       C  0.62240791  0.63949538  0.09159926     0.19300
C4076       C  0.62069038  0.62641497  0.08969751    -0.18800
C4077       C  0.63114119  0.61822128  0.08920457    -0.11000
C4078       C  0.64362451  0.62294066  0.09057842     0.21600
C4079       C  0.64534199  0.63594130  0.09279159    -0.20400
C4080       C  0.63489845  0.64412583  0.09336629    -0.11200
C4081       C  0.65503318  0.61491491  0.08831644    -0.15400
C4082       C  0.65516521  0.60225016  0.08983882    -0.29200
C4083       C  0.61112289  0.64800595  0.09030904    -0.03500
C4084       C  0.61115781  0.66047521  0.09308978    -0.40000
H4085       H  0.61123979  0.62256582  0.08815569     0.12700
H4086       H  0.62941062  0.60832489  0.08711872     0.12400
H4087       H  0.65484472  0.63984713  0.09372722     0.11800
H4088       H  0.63681235  0.65411103  0.09460956     0.12000
H4089       H  0.66353475  0.61961463  0.08477199     0.14800
H4090       H  0.64697122  0.59739394  0.09381397     0.13500
H4091       H  0.60253133  0.64391617  0.08620186     0.11200
H4092       H  0.61935578  0.66488657  0.09755607     0.13200
C4093       C  0.49751535  0.66790787  0.09211339     0.19300
C4094       C  0.50539814  0.66072260  0.08417202    -0.18800
C4095       C  0.51867184  0.66174244  0.08495090    -0.11000
C4096       C  0.52443869  0.67015901  0.09362345     0.21600
C4097       C  0.51657953  0.67674640  0.10210829    -0.20400
C4098       C  0.50327826  0.67570258  0.10135073    -0.11200
C4099       C  0.53843662  0.67287054  0.09369897    -0.15400
C4100       C  0.54608442  0.67064107  0.08370526    -0.29200
C4101       C  0.48354438  0.66799350  0.08942657    -0.03500
C4102       C  0.47459258  0.67284128  0.09714896    -0.40000
H4103       H  0.50125965  0.65454918  0.07705601     0.12700
H4104       H  0.52430040  0.65606294  0.07855943     0.12400
H4105       H  0.52072336  0.68319040  0.10897892     0.11800
H4106       H  0.49762925  0.68151086  0.10760343     0.12000
H4107       H  0.54235338  0.67794870  0.10180009     0.14800
H4108       H  0.54233094  0.66615464  0.07522362     0.13500
H4109       H  0.48054622  0.66440124  0.08021877     0.11200
H4110       H  0.47705147  0.67616900  0.10657809     0.13200
C4111       C  0.63996291  0.62921431  0.91779444     0.19300
C4112       C  0.64143359  0.64236423  0.91940448    -0.18800
C4113       C  0.63082762  0.65038251  0.91983017    -0.11000
C4114       C  0.61840847  0.64542724  0.91874430     0.21600
C4115       C  0.61692481  0.63233254  0.91683613    -0.20400
C4116       C  0.62753801  0.62432078  0.91629247    -0.11200
C4117       C  0.60687296  0.65337693  0.92087965    -0.15400
C4118       C  0.60649745  0.66598339  0.91884373    -0.29200
C4119       C  0.65144341  0.62091366  0.91905739    -0.03500
C4120       C  0.65187764  0.60864508  0.91549557    -0.40000
H4121       H  0.65083039  0.64642030  0.92072142     0.12700
H4122       H  0.63239940  0.66036486  0.92163528     0.12400
H4123       H  0.60748870  0.62823267  0.91609877     0.11800
H4124       H  0.62585595  0.61425421  0.91530670     0.12000
H4125       H  0.59840727  0.64866112  0.92448241     0.14800
H4126       H  0.61457677  0.67078510  0.91458176     0.13500
H4127       H  0.65983192  0.62502234  0.92355296     0.11200
H4128       H  0.64388295  0.60436130  0.91053385     0.13200
C4129       C  0.58186560  0.69165284  0.01921590     0.19300
C4130       C  0.57212379  0.69685994  0.01170237    -0.18800
C4131       C  0.57278629  0.69653467  0.99844690    -0.11000
C4132       C  0.58319606  0.69082886  0.99234855     0.21600
C4133       C  0.59307440  0.68587656  0.99984512    -0.20400
C4134       C  0.59241369  0.68619219  0.01310849    -0.11200
C4135       C  0.58419690  0.68999019  0.97826472    -0.15400
C4136       C  0.57411362  0.69076546  0.97038243    -0.29200
C4137       C  0.58026124  0.69155204  0.03327576    -0.03500
C4138       C  0.58961738  0.68887779  0.04162850    -0.40000
H4139       H  0.56392028  0.70117131  0.01610998     0.12700
H4140       H  0.56515508  0.70087140  0.99308175     0.12400
H4141       H  0.60123340  0.68149670  0.99541816     0.11800
H4142       H  0.60005119  0.68183873  0.01842207     0.12000
H4143       H  0.59355344  0.68827787  0.97424917     0.14800
H4144       H  0.56458092  0.69193064  0.97411337     0.13500
H4145       H  0.57082724  0.69361561  0.03692043     0.11200
H4146       H  0.59923787  0.68709250  0.03846132     0.13200
C4147       C  0.49092927  0.67962233  0.92132000     0.19300
C4148       C  0.49955396  0.67075858  0.92628208    -0.18800
C4149       C  0.51266770  0.67224405  0.92453072    -0.11000
C4150       C  0.51748537  0.68274368  0.91782395     0.21600
C4151       C  0.50883582  0.69135013  0.91242284    -0.20400
C4152       C  0.49568726  0.68979579  0.91407917    -0.11200
C4153       C  0.53131053  0.68593348  0.91782817    -0.15400
C4154       C  0.54063948  0.67744549  0.91992588    -0.29200
C4155       C  0.47735697  0.67876056  0.92525524    -0.03500
C4156       C  0.46758980  0.68423790  0.91904233    -0.40000
H4157       H  0.49615955  0.66290832  0.93198099     0.12700
H4158       H  0.51896782  0.66556296  0.92912357     0.12400
H4159       H  0.51228874  0.69959115  0.90733704     0.11800
H4160       H  0.48938925  0.69697647  0.91031747     0.12000
H4161       H  0.53384849  0.69587804  0.91680805     0.14800
H4162       H  0.53849221  0.66739680  0.92043352     0.13500
H4163       H  0.47536001  0.67354005  0.93393081     0.11200
H4164       H  0.46909877  0.68895956  0.91001237     0.13200
C4165       C  0.59028560  0.89307841  0.13822308     0.19300
C4166       C  0.58918538  0.89438895  0.12499177    -0.18800
C4167       C  0.58927783  0.88375544  0.11707547    -0.11000
C4168       C  0.59057577  0.87151936  0.12223437     0.21600
C4169       C  0.59209743  0.87022744  0.13540581    -0.20400
C4170       C  0.59208494  0.88085776  0.14331462    -0.11200
C4171       C  0.58905523  0.85989010  0.11442056    -0.15400
C4172       C  0.59070523  0.85954891  0.10176857    -0.29200
C4173       C  0.58901743  0.90461358  0.14629506    -0.03500
C4174       C  0.58633691  0.90424336  0.15878051    -0.40000
H4175       H  0.58780869  0.90365043  0.12078418     0.12700
H4176       H  0.58775667  0.88517021  0.10700325     0.12400
H4177       H  0.59310900  0.86092009  0.13962319     0.11800
H4178       H  0.59338782  0.87935061  0.15338467     0.12000
H4179       H  0.58586042  0.85135947  0.11926282     0.14800
H4180       H  0.59434724  0.86774256  0.09671270     0.13500
H4181       H  0.58934221  0.91377595  0.14158693     0.11200
H4182       H  0.58534973  0.89528211  0.16369761     0.13200
C4183       C  0.58474577  0.77151606  0.09277256     0.19300
C4184       C  0.57593363  0.76301404  0.09812763    -0.18800
C4185       C  0.57756689  0.74990597  0.09700652    -0.11000
C4186       C  0.58807951  0.74499911  0.09043493     0.21600
C4187       C  0.59711824  0.75347995  0.08548189    -0.20400
C4188       C  0.59552944  0.76657731  0.08665529    -0.11200
C4189       C  0.58919330  0.73130687  0.08728350    -0.15400
C4190       C  0.58353031  0.72188514  0.09382960    -0.29200
C4191       C  0.58154129  0.78525086  0.09251522    -0.03500
C4192       C  0.58959518  0.79456888  0.08894934    -0.40000
H4193       H  0.56748600  0.76652268  0.10278299     0.12700
H4194       H  0.57023165  0.74372000  0.10070719     0.12400
H4195       H  0.60524564  0.74995885  0.08029089     0.11800
H4196       H  0.60245977  0.77267933  0.08217860     0.12000
H4197       H  0.59476558  0.72890245  0.07895199     0.14800
H4198       H  0.57848323  0.72385457  0.10257292     0.13500
H4199       H  0.57176193  0.78773136  0.09472119     0.11200
H4200       H  0.59953120  0.79266935  0.08707361     0.13200
C4201       C  0.58200094  0.77505192  0.92192783     0.19300
C4202       C  0.57374127  0.76662713  0.91567756    -0.18800
C4203       C  0.57570761  0.75355003  0.91634081    -0.11000
C4204       C  0.58592795  0.74860724  0.92344629     0.21600
C4205       C  0.59439210  0.75705644  0.92941274    -0.20400
C4206       C  0.59251484  0.77015246  0.92861103    -0.11200
C4207       C  0.58701646  0.73483146  0.92617367    -0.15400
C4208       C  0.58209843  0.72575447  0.91863861    -0.29200
C4209       C  0.57856715  0.78866614  0.92251760    -0.03500
C4210       C  0.58711553  0.79804149  0.92418605    -0.40000
H4211       H  0.56549774  0.77016357  0.91059810     0.12700
H4212       H  0.56876746  0.74736465  0.91189310     0.12400
H4213       H  0.60223174  0.75349317  0.93507799     0.11800
H4214       H  0.59890048  0.77634454  0.93381754     0.12000
H4215       H  0.59156241  0.73209864  0.93505389     0.14800
H4216       H  0.57813944  0.72815055  0.90941082     0.13500
H4217       H  0.56852252  0.79103274  0.92173945     0.11200
H4218       H  0.59724381  0.79602126  0.92424581     0.13200
C4219       C  0.58338636  0.83108079  0.01973465     0.19300
C4220       C  0.59409763  0.83079567  0.01181474    -0.18800
C4221       C  0.59266508  0.83117370  0.99856710    -0.11000
C4222       C  0.58042387  0.83160936  0.99305068     0.21600
C4223       C  0.56976541  0.83158116  0.00104697    -0.20400
C4224       C  0.57120549  0.83135553  0.01420579    -0.11200
C4225       C  0.57806197  0.83168861  0.97911162    -0.15400
C4226       C  0.58682499  0.83411593  0.97012110    -0.29200
C4227       C  0.58494895  0.83044316  0.03371752    -0.03500
C4228       C  0.57707640  0.83660255  0.04159904    -0.40000
H4229       H  0.60356705  0.83036324  0.01589026     0.12700
H4230       H  0.60112471  0.83089483  0.99276463     0.12400
H4231       H  0.56023694  0.83172420  0.99709503     0.11800
H4232       H  0.56274068  0.83113681  0.02004211     0.12000
H4233       H  0.56830328  0.82999013  0.97607858     0.14800
H4234       H  0.59661010  0.83629802  0.97261083     0.13500
H4235       H  0.59264947  0.82475179  0.03758275     0.11200
H4236       H  0.56985347  0.84289680  0.03776183     0.13200
C4237       C  0.41559249  0.88804415  0.13138878     0.19300
C4238       C  0.40867277  0.87659336  0.13114614    -0.18800
C4239       C  0.41039647  0.86778657  0.12128522    -0.11000
C4240       C  0.41921241  0.87023593  0.11152370     0.21600
C4241       C  0.42599737  0.88170151  0.11175544    -0.20400
C4242       C  0.42424816  0.89045970  0.12149675    -0.11200
C4243       C  0.42247225  0.86093213  0.10141271    -0.15400
C4244       C  0.41535049  0.85084744  0.09797714    -0.29200
C4245       C  0.41462063  0.89677116  0.14254406    -0.03500
C4246       C  0.41787662  0.90913153  0.14185391    -0.40000
H4247       H  0.40209429  0.87436335  0.13871668     0.12700
H4248       H  0.40515715  0.85894761  0.12161208     0.12400
H4249       H  0.43295367  0.88379960  0.10447864     0.11800
H4250       H  0.43017679  0.89885914  0.12146967     0.12000
H4251       H  0.43132760  0.86262125  0.09635994     0.14800
H4252       H  0.40624205  0.84898586  0.10242535     0.13500
H4253       H  0.41182572  0.89278948  0.15163321     0.11200
H4254       H  0.42015339  0.91330096  0.13272802     0.13200
C4255       C  0.42393934  0.74005525  0.08529535     0.19300
C4256       C  0.41512263  0.74679335  0.07786896    -0.18800
C4257       C  0.41508261  0.76005708  0.07785124    -0.11000
C4258       C  0.42396009  0.76685451  0.08525733     0.21600
C4259       C  0.43249066  0.76008831  0.09296664    -0.20400
C4260       C  0.43251881  0.74686707  0.09299568    -0.11200
C4261       C  0.42568758  0.78080908  0.08430379    -0.15400
C4262       C  0.41758200  0.78880356  0.07849250    -0.29200
C4263       C  0.42483866  0.72609908  0.08373247    -0.03500
C4264       C  0.43064832  0.71838298  0.09211403    -0.40000
H4265       H  0.40850206  0.74177849  0.07175832     0.12700
H4266       H  0.40847610  0.76483721  0.07159354     0.12400
H4267       H  0.43950990  0.76505782  0.09866521     0.11800
H4268       H  0.43971192  0.74211143  0.09858583     0.12000
H4269       H  0.43448010  0.78466407  0.08820793     0.14800
H4270       H  0.40846733  0.78557196  0.07486071     0.13500
H4271       H  0.42091356  0.72206672  0.07506405     0.11200
H4272       H  0.43408637  0.72194356  0.10115168     0.13200
C4273       C  0.51560837  0.82102898  0.08177987     0.19300
C4274       C  0.50854326  0.81538131  0.07198191    -0.18800
C4275       C  0.49529030  0.81599175  0.07191307    -0.11000
C4276       C  0.48881373  0.82229445  0.08169254     0.21600
C4277       C  0.49583098  0.82735009  0.09185955    -0.20400
C4278       C  0.50912116  0.82674012  0.09192858    -0.11200
C4279       C  0.47476580  0.82349971  0.08166129    -0.15400
C4280       C  0.46783138  0.82338872  0.07091370    -0.29200
C4281       C  0.52966700  0.82092765  0.08083886    -0.03500
C4282       C  0.53725624  0.82930091  0.08680264    -0.40000
H4283       H  0.51330174  0.81069455  0.06420227     0.12700
H4284       H  0.49019599  0.81145120  0.06422160     0.12400
H4285       H  0.49103180  0.83196565  0.09965089     0.11800
H4286       H  0.51420497  0.83074660  0.09992841     0.12000
H4287       H  0.47002988  0.82489585  0.09070062     0.14800
H4288       H  0.47240281  0.82273543  0.06173140     0.13500
H4289       H  0.53388896  0.81425757  0.07423910     0.11200
H4290       H  0.53340103  0.83635822  0.09316213     0.13200
C4291       C  0.42448686  0.74598295  0.92094199     0.19300
C4292       C  0.41410299  0.75330436  0.91682284    -0.18800
C4293       C  0.41513431  0.76656832  0.91596909    -0.11000
C4294       C  0.42668589  0.77270571  0.91906916     0.21600
C4295       C  0.43714911  0.76526379  0.92266216    -0.20400
C4296       C  0.43609665  0.75212429  0.92356890    -0.11200
C4297       C  0.42842005  0.78673329  0.91936202    -0.15400
C4298       C  0.41954432  0.79548558  0.91649615    -0.29200
C4299       C  0.42322570  0.73196625  0.92228811    -0.03500
C4300       C  0.42985529  0.72553354  0.93114727    -0.40000
H4301       H  0.40510925  0.74878365  0.91455944     0.12700
H4302       H  0.40683622  0.77188751  0.91308632     0.12400
H4303       H  0.44620228  0.76964873  0.92495998     0.11800
H4304       H  0.44446638  0.74679020  0.92627180     0.12000
H4305       H  0.43765207  0.79010186  0.92265820     0.14800
H4306       H  0.41020760  0.79278578  0.91298951     0.13500
H4307       H  0.41663386  0.72693010  0.91611449     0.11200
H4308       H  0.43576208  0.73068357  0.93787982     0.13200
C4309       C  0.48845174  0.83846533  0.92480909     0.19300
C4310       C  0.49587575  0.84088883  0.93565994    -0.18800
C4311       C  0.50914747  0.84041493  0.93516745    -0.11000
C4312       C  0.51535481  0.83753054  0.92373996     0.21600
C4313       C  0.50799047  0.83509801  0.91286944    -0.20400
C4314       C  0.49468543  0.83561391  0.91334084    -0.11200
C4315       C  0.52939872  0.83613790  0.92309937    -0.15400
C4316       C  0.53743956  0.84216574  0.93103536    -0.29200
C4317       C  0.47433869  0.83853038  0.92618655    -0.03500
C4318       C  0.46595151  0.83661878  0.91667573    -0.40000
H4319       H  0.49138131  0.84296513  0.94465252     0.12700
H4320       H  0.51445614  0.84191911  0.94385475     0.12400
H4321       H  0.51255127  0.83271104  0.90399238     0.11800
H4322       H  0.48946761  0.83355074  0.90473951     0.12000
H4323       H  0.53323585  0.82991748  0.91586549     0.14800
H4324       H  0.53388917  0.84897113  0.93784577     0.13500
H4325       H  0.47063382  0.83994438  0.93570087     0.11200
H4326       H  0.46905800  0.83519869  0.90700244     0.13200
C4327       C  0.41844377  0.83204899  0.01068775     0.19300
C4328       C  0.41253722  0.82383778  0.00196203    -0.18800
C4329       C  0.41344096  0.82602212  0.98887340    -0.11000
C4330       C  0.42040258  0.83644803  0.98421572     0.21600
C4331       C  0.42619076  0.84472086  0.99293670    -0.20400
C4332       C  0.42520740  0.84259901  0.00600769    -0.11200
C4333       C  0.42297741  0.83823782  0.97044371    -0.15400
C4334       C  0.41551520  0.83363524  0.96108691    -0.29200
C4335       C  0.41842869  0.82865717  0.02442817    -0.03500
C4336       C  0.42085656  0.83699163  0.03381394    -0.40000
H4337       H  0.40745156  0.81553294  0.00527664     0.12700
H4338       H  0.40916359  0.81920993  0.98246496     0.12400
H4339       H  0.43177581  0.85269814  0.98961063     0.11800
H4340       H  0.43025869  0.84894462  0.01232904     0.12000
H4341       H  0.43157683  0.84340886  0.96790842     0.14800
H4342       H  0.40651511  0.82906099  0.96327282     0.13500
H4343       H  0.41671277  0.81878711  0.02688116     0.11200
H4344       H  0.42200376  0.84699631  0.03173765     0.13200
C4345       C  0.41277466  0.12442575  0.86780718     0.19300
C4346       C  0.41446508  0.12242153  0.88089109    -0.18800
C4347       C  0.41481892  0.13261744  0.88939504    -0.11000
C4348       C  0.41352245  0.14516641  0.88500754     0.21600
C4349       C  0.41163895  0.14716107  0.87194616    -0.20400
C4350       C  0.41125381  0.13696365  0.86344577    -0.11200
C4351       C  0.41525743  0.15641404  0.89346675    -0.15400
C4352       C  0.41486112  0.15594844  0.90625572    -0.29200
C4353       C  0.41387182  0.11337785  0.85900005    -0.03500
C4354       C  0.41015632  0.11356432  0.84673427    -0.40000
H4355       H  0.41584205  0.11292610  0.88453048     0.12700
H4356       H  0.41664145  0.13057111  0.89928895     0.12400
H4357       H  0.41078522  0.15669889  0.86824089     0.11800
H4358       H  0.41030013  0.13907628  0.85344814     0.12000
H4359       H  0.41742073  0.16542088  0.88893883     0.14800
H4360       H  0.41236306  0.14724205  0.91110221     0.13500
H4361       H  0.41846753  0.10490765  0.86264424     0.11200
H4362       H  0.40533313  0.12175368  0.84284960     0.13200
C4363       C  0.41383208  0.87760147  0.88375156     0.19300
C4364       C  0.40928644  0.87751022  0.87119354    -0.18800
C4365       C  0.41035565  0.88830960  0.86349920    -0.11000
C4366       C  0.41611106  0.89943790  0.86821798     0.21600
C4367       C  0.42045867  0.89956159  0.88082820    -0.20400
C4368       C  0.41933148  0.88882223  0.88851479    -0.11200
C4369       C  0.41879740  0.91071925  0.86013515    -0.15400
C4370       C  0.41310962  0.91312819  0.84891778    -0.29200
C4371       C  0.41408992  0.86555080  0.89113472    -0.03500
C4372       C  0.41500381  0.86517463  0.90387943    -0.40000
H4373       H  0.40520058  0.86894944  0.86721845     0.12700
H4374       H  0.40715467  0.88766669  0.85375531     0.12400
H4375       H  0.42507125  0.90791777  0.88466802     0.11800
H4376       H  0.42336735  0.88922124  0.89796281     0.12000
H4377       H  0.42601591  0.91730901  0.86355164     0.14800
H4378       H  0.40559250  0.90702502  0.84533765     0.13500
H4379       H  0.41427212  0.85672350  0.88584214     0.11200
H4380       H  0.41431249  0.87382125  0.90937841     0.13200
C4381       C  0.41302488  0.02689294  0.82966981     0.19300
C4382       C  0.41759481  0.01877479  0.83919902    -0.18800
C4383       C  0.41625508  0.00563658  0.83804553    -0.11000
C4384       C  0.41045958  0.00033857  0.82720614     0.21600
C4385       C  0.40564862  0.00846862  0.81780704    -0.20400
C4386       C  0.40683901  0.02161187  0.81903789    -0.11200
C4387       C  0.41099124  0.98654138  0.82456914    -0.15400
C4388       C  0.41202095  0.97763657  0.83365684    -0.29200
C4389       C  0.41609464  0.04062301  0.83040808    -0.03500
C4390       C  0.40911002  0.04964492  0.82468588    -0.40000
H4391       H  0.42254827  0.02259551  0.84737302     0.12700
H4392       H  0.42044051  0.99967711  0.84531154     0.12400
H4393       H  0.40135812  0.00461962  0.80927127     0.11800
H4394       H  0.40352410  0.02754325  0.81132131     0.12000
H4395       H  0.41138823  0.98368544  0.81466407     0.14800
H4396       H  0.41099991  0.98011621  0.84359677     0.13500
H4397       H  0.42459066  0.04336913  0.83566304     0.11200
H4398       H  0.40021078  0.04722698  0.82000029     0.13200
C4399       C  0.58479461  0.13988267  0.88916046     0.19300
C4400       C  0.58464333  0.12665006  0.89071771    -0.18800
C4401       C  0.58404643  0.11855943  0.88015700    -0.11000
C4402       C  0.58341394  0.12355342  0.86775955     0.21600
C4403       C  0.58367380  0.13675958  0.86621866    -0.20400
C4404       C  0.58441143  0.14482716  0.87673598    -0.11200
C4405       C  0.58114420  0.11543235  0.85636356    -0.15400
C4406       C  0.58461802  0.10318598  0.85553869    -0.29200
C4407       C  0.58409830  0.14823098  0.90059318    -0.03500
C4408       C  0.58750983  0.16056247  0.90051230    -0.40000
H4409       H  0.58471572  0.12256037  0.90015112     0.12700
H4410       H  0.58350509  0.10844530  0.88177800     0.12400
H4411       H  0.58300062  0.14087569  0.85681819     0.11800
H4412       H  0.58407433  0.15492762  0.87504442     0.12000
H4413       H  0.57616387  0.11970714  0.84837877     0.14800
H4414       H  0.59001312  0.09883898  0.86318801     0.13500
H4415       H  0.58017584  0.14418997  0.90923453     0.11200
H4416       H  0.59186794  0.16468302  0.89215443     0.13200
C4417       C  0.48295400  0.08423601  0.82947430     0.19300
C4418       C  0.48983133  0.07681259  0.83819483    -0.18800
C4419       C  0.50316436  0.07743391  0.83872983    -0.11000
C4420       C  0.50991147  0.08545869  0.83041909     0.21600
C4421       C  0.50299640  0.09298751  0.82185165    -0.20400
C4422       C  0.48972647  0.09235039  0.82130518    -0.11200
C4423       C  0.52407095  0.08620610  0.82994662    -0.15400
C4424       C  0.53212655  0.07808476  0.83567252    -0.29200
C4425       C  0.46884312  0.08282730  0.82873986    -0.03500
C4426       C  0.46110374  0.09149943  0.82339619    -0.40000
H4427       H  0.48486996  0.07046906  0.84458746     0.12700
H4428       H  0.50804027  0.07160063  0.84562305     0.12400
H4429       H  0.50790392  0.09921369  0.81530615     0.11800
H4430       H  0.48491913  0.09798012  0.81418849     0.12000
H4431       H  0.52810234  0.09352625  0.82389246     0.14800
H4432       H  0.52865182  0.07043919  0.84160195     0.13500
H4433       H  0.46464193  0.07437187  0.83291546     0.11200
H4434       H  0.46488786  0.10036109  0.81978425     0.13200
C4435       C  0.58733230  0.87400307  0.88638232     0.19300
C4436       C  0.59129224  0.87227477  0.87378366    -0.18800
C4437       C  0.59093016  0.88230828  0.86502721    -0.11000
C4438       C  0.58643920  0.89433183  0.86867143     0.21600
C4439       C  0.58271017  0.89607229  0.88134677    -0.20400
C4440       C  0.58313931  0.88608308  0.89008780    -0.11200
C4441       C  0.58444159  0.90502332  0.85953890    -0.15400
C4442       C  0.58823707  0.90519444  0.84731243    -0.29200
C4443       C  0.58648757  0.86283688  0.89506011    -0.03500
C4444       C  0.58676997  0.86379290  0.90781223    -0.40000
H4445       H  0.59443713  0.86304746  0.87063226     0.12700
H4446       H  0.59375510  0.88039703  0.85537802     0.12400
H4447       H  0.57908729  0.90514350  0.88444341     0.11800
H4448       H  0.57963481  0.88775730  0.89957477     0.12000
H4449       H  0.57904048  0.91306827  0.86299605     0.14800
H4450       H  0.59384197  0.89753917  0.84343670     0.13500
H4451       H  0.58523025  0.85354434  0.89078132     0.11200
H4452       H  0.58865766  0.87288323  0.91225567     0.13200
C4453       C  0.48695371  0.93687395  0.82852882     0.19300
C4454       C  0.49378966  0.92641631  0.82406972    -0.18800
C4455       C  0.50707334  0.92660731  0.82373596    -0.11000
C4456       C  0.51391120  0.93727312  0.82806049     0.21600
C4457       C  0.50706545  0.94769234  0.83269992    -0.20400
C4458       C  0.49373706  0.94751481  0.83297489    -0.11200
C4459       C  0.52806791  0.93813705  0.82753342    -0.15400
C4460       C  0.53577813  0.92833798  0.82484629    -0.29200
C4461       C  0.47282032  0.93611250  0.82838490    -0.03500
C4462       C  0.46505023  0.94619729  0.82877645    -0.40000
H4463       H  0.48880971  0.91809687  0.82060110     0.12700
H4464       H  0.51178681  0.91843040  0.81985134     0.12400
H4465       H  0.51205207  0.95602539  0.83611963     0.11800
H4466       H  0.48885864  0.95566466  0.83678389     0.12000
H4467       H  0.53235830  0.94733468  0.82941327     0.14800
H4468       H  0.53202635  0.91891953  0.82322436     0.13500
H4469       H  0.46859800  0.92675306  0.82724190     0.11200
H4470       H  0.46885140  0.95575028  0.82943626     0.13200
C4471       C  0.58130432  0.01904710  0.82902688     0.19300
C4472       C  0.57764656  0.01027250  0.83835315    -0.18800
C4473       C  0.57885902  0.99726610  0.83627272    -0.11000
C4474       C  0.58362152  0.99272597  0.82469837     0.21600
C4475       C  0.58754489  0.00148409  0.81544416    -0.20400
C4476       C  0.58650405  0.01453585  0.81760440    -0.11200
C4477       C  0.58311847  0.97903300  0.82152085    -0.15400
C4478       C  0.58400162  0.96979656  0.83029589    -0.29200
C4479       C  0.57824269  0.03263019  0.83103968    -0.03500
C4480       C  0.58428542  0.04230350  0.82527924    -0.40000
H4481       H  0.57347916  0.01349192  0.84715928     0.12700
H4482       H  0.57540952  0.99080377  0.84347771     0.12400
H4483       H  0.59108434  0.99820848  0.80638668     0.11800
H4484       H  0.58914701  0.02099721  0.81006929     0.12000
H4485       H  0.58159481  0.97648506  0.81163469     0.14800
H4486       H  0.58640570  0.97206180  0.84006337     0.13500
H4487       H  0.57052519  0.03474040  0.83753456     0.11200
H4488       H  0.59244077  0.04057121  0.81924898     0.13200
C4489       C  0.64287302  0.09340031  0.61872998     0.19300
C4490       C  0.62975132  0.09540445  0.61721320    -0.18800
C4491       C  0.62160076  0.09524621  0.62771079    -0.11000
C4492       C  0.62641366  0.09285387  0.63998532     0.21600
C4493       C  0.63960612  0.09120944  0.64150854    -0.20400
C4494       C  0.64776542  0.09153757  0.63103256    -0.11200
C4495       C  0.61798840  0.09051750  0.65112769    -0.15400
C4496       C  0.60563854  0.09385728  0.65174100    -0.29200
C4497       C  0.65092005  0.09167448  0.60728230    -0.03500
C4498       C  0.66342135  0.09452407  0.60691344    -0.40000
H4499       H  0.62574189  0.09670549  0.60782017     0.12700
H4500       H  0.61150218  0.09630558  0.62601186     0.12400
H4501       H  0.64357343  0.08921761  0.65079997     0.11800
H4502       H  0.65778071  0.08963414  0.63251826     0.12000
H4503       H  0.62207213  0.08529183  0.65905185     0.14800
H4504       H  0.60132613  0.09950771  0.64427565     0.13500
H4505       H  0.64642025  0.08749299  0.59896318     0.11200
H4506       H  0.66793525  0.09929297  0.61488565     0.13200
C4507       C  0.58198307  0.08436040  0.76717411     0.19300
C4508       C  0.59049742  0.09133240  0.75962162    -0.18800
C4509       C  0.59084344  0.08957740  0.74641121    -0.11000
C4510       C  0.58272997  0.08066479  0.74050392     0.21600
C4511       C  0.57442346  0.07355048  0.74813990    -0.20400
C4512       C  0.57404276  0.07534321  0.76126003    -0.11200
C4513       C  0.58238659  0.07835060  0.72653072    -0.15400
C4514       C  0.58839205  0.08539607  0.71768706    -0.29200
C4515       C  0.58201081  0.08601109  0.78124395    -0.03500
C4516       C  0.57155658  0.08379859  0.78826096    -0.40000
H4517       H  0.59685952  0.09818051  0.76395026     0.12700
H4518       H  0.59754559  0.09515102  0.74098464     0.12400
H4519       H  0.56816210  0.06652447  0.74393649     0.11800
H4520       H  0.56770533  0.06940063  0.76675992     0.12000
H4521       H  0.57632093  0.07062837  0.72328053     0.14800
H4522       H  0.59440832  0.09332092  0.72033815     0.13500
H4523       H  0.59083151  0.08878459  0.78590980     0.11200
H4524       H  0.56259409  0.08162279  0.78356522     0.13200
C4525       C  0.63512715  0.91860732  0.61039366     0.19300
C4526       C  0.62226998  0.92194929  0.60898896    -0.18800
C4527       C  0.61395963  0.92164297  0.61931796    -0.11000
C4528       C  0.61826017  0.91784086  0.63141646     0.21600
C4529       C  0.63103486  0.91411490  0.63275534    -0.20400
C4530       C  0.63937588  0.91443801  0.62239405    -0.11200
C4531       C  0.61010772  0.91860083  0.64299659    -0.15400
C4532       C  0.59742471  0.92053699  0.64274582    -0.29200
C4533       C  0.64366968  0.92024396  0.59919460    -0.03500
C4534       C  0.65648517  0.91956233  0.59953513    -0.40000
H4535       H  0.61868944  0.92520623  0.59990359     0.12700
H4536       H  0.60432991  0.92485953  0.61774151     0.12400
H4537       H  0.63465140  0.91115078  0.64192854     0.11800
H4538       H  0.64911763  0.91155843  0.62396171     0.12000
H4539       H  0.61487740  0.91815095  0.65216363     0.14800
H4540       H  0.59225237  0.92080149  0.63383882     0.13500
H4541       H  0.63917464  0.92302846  0.59031246     0.11200
H4542       H  0.66148195  0.91708345  0.60818880     0.13200
C4543       C  0.58453040  0.01879987  0.67481646     0.19300
C4544       C  0.59276793  0.01029080  0.68091576    -0.18800
C4545       C  0.59090936  0.99721940  0.67981678    -0.11000
C4546       C  0.58070428  0.99238430  0.67256872     0.21600
C4547       C  0.57245718  0.00088313  0.66649432    -0.20400
C4548       C  0.57432163  0.01394103  0.66757766    -0.11200
C4549       C  0.57783923  0.97863223  0.67179245    -0.15400
C4550       C  0.58655617  0.96956750  0.67380342    -0.29200
C4551       C  0.58633760  0.03258916  0.67700518    -0.03500
C4552       C  0.58116886  0.04158680  0.66959714    -0.40000
H4553       H  0.60056379  0.01377408  0.68672022     0.12700
H4554       H  0.59723542  0.99101060  0.68499893     0.12400
H4555       H  0.56442205  0.99740349  0.66102670     0.11800
H4556       H  0.56745745  0.02011021  0.66307176     0.12000
H4557       H  0.56814635  0.97586285  0.66936210     0.14800
H4558       H  0.59643120  0.97200186  0.67567357     0.13500
H4559       H  0.59201464  0.03544798  0.68517896     0.11200
H4560       H  0.57587403  0.03910655  0.66108934     0.13200
C4561       C  0.58154760  0.92568874  0.76182316     0.19300
C4562       C  0.57633034  0.91662992  0.75352639    -0.18800
C4563       C  0.57707501  0.91826415  0.74036178    -0.11000
C4564       C  0.58285823  0.92914792  0.73523939     0.21600
C4565       C  0.58817758  0.93815398  0.74351132    -0.20400
C4566       C  0.58766095  0.93639888  0.75667232    -0.11200
C4567       C  0.58236003  0.93193914  0.72144265    -0.15400
C4568       C  0.58298048  0.92294788  0.71242953    -0.29200
C4569       C  0.57913857  0.92444645  0.77566635    -0.03500
C4570       C  0.58667500  0.92952779  0.78470338    -0.40000
H4571       H  0.57140152  0.90840779  0.75725565     0.12700
H4572       H  0.57259487  0.91130514  0.73423221     0.12400
H4573       H  0.59252335  0.94669312  0.73977399     0.11800
H4574       H  0.59147586  0.94375346  0.76276806     0.12000
H4575       H  0.58155122  0.94181668  0.71861530     0.14800
H4576       H  0.58464338  0.91313175  0.71502272     0.13500
H4577       H  0.57060151  0.91934316  0.77851367     0.11200
H4578       H  0.59563701  0.93401683  0.78218074     0.13200
C4579       C  0.37394646  0.09157250  0.61181707     0.19300
C4580       C  0.38714879  0.08993511  0.61075366    -0.18800
C4581       C  0.39505036  0.09072652  0.62144741    -0.11000
C4582       C  0.38987021  0.09297937  0.63353450     0.21600
C4583       C  0.37668263  0.09486498  0.63456620    -0.20400
C4584       C  0.36879068  0.09427673  0.62381212    -0.11200
C4585       C  0.39773918  0.09181395  0.64527326    -0.15400
C4586       C  0.41035142  0.09409875  0.64554981    -0.29200
C4587       C  0.36575553  0.08883870  0.60060428    -0.03500
C4588       C  0.35416634  0.09392040  0.59867610    -0.40000
H4589       H  0.39132586  0.08765289  0.60165952     0.12700
H4590       H  0.40509362  0.08884813  0.62029188     0.12400
H4591       H  0.37242959  0.09642358  0.64377710     0.11800
H4592       H  0.35862041  0.09525589  0.62503148     0.12000
H4593       H  0.39307661  0.08842254  0.65382471     0.14800
H4594       H  0.41502591  0.09819485  0.63733373     0.13500
H4595       H  0.36939111  0.08211568  0.59371434     0.11200
H4596       H  0.35060795  0.10122088  0.60495891     0.13200
C4597       C  0.49451767  0.09059598  0.67262664     0.19300
C4598       C  0.50250249  0.09840766  0.67996141    -0.18800
C4599       C  0.51569804  0.09660717  0.68004820    -0.11000
C4600       C  0.52115934  0.08685733  0.67281386     0.21600
C4601       C  0.51319090  0.07917165  0.66535218    -0.20400
C4602       C  0.50003958  0.08098875  0.66523705    -0.11200
C4603       C  0.53490439  0.08370131  0.67344385    -0.15400
C4604       C  0.54410171  0.09161784  0.67757088    -0.29200
C4605       C  0.48049124  0.09186163  0.67391130    -0.03500
C4606       C  0.47212615  0.08712194  0.66545091    -0.40000
H4607       H  0.49848253  0.10574378  0.68588513     0.12700
H4608       H  0.52145860  0.10254413  0.68616379     0.12400
H4609       H  0.51713222  0.07150955  0.65980441     0.11800
H4610       H  0.49426928  0.07445180  0.65977524     0.12000
H4611       H  0.53760566  0.07432618  0.67016707     0.14800
H4612       H  0.54194702  0.10124941  0.68037262     0.13500
H4613       H  0.47692045  0.09632684  0.68247833     0.11200
H4614       H  0.47537263  0.08294756  0.65664446     0.13200
C4615       C  0.42200869  0.09128211  0.75936055     0.19300
C4616       C  0.43128993  0.09697569  0.75164798    -0.18800
C4617       C  0.43038398  0.09636431  0.73840778    -0.11000
C4618       C  0.42020818  0.08988076  0.73257359     0.21600
C4619       C  0.41089219  0.08422329  0.74026889    -0.20400
C4620       C  0.41170589  0.08498015  0.75352182    -0.11200
C4621       C  0.41992340  0.08750337  0.71867556    -0.15400
C4622       C  0.42548204  0.09512584  0.71004158    -0.29200
C4623       C  0.42401134  0.09118778  0.77335900    -0.03500
C4624       C  0.41460775  0.08978958  0.78190263    -0.40000
H4625       H  0.43941819  0.10170927  0.75589264     0.12700
H4626       H  0.43797686  0.10046223  0.73281489     0.12400
H4627       H  0.40310842  0.07895124  0.73600923     0.11800
H4628       H  0.40456345  0.08015678  0.75912266     0.12000
H4629       H  0.41544958  0.07875118  0.71550373     0.14800
H4630       H  0.42947993  0.10419990  0.71285500     0.13500
H4631       H  0.43370957  0.09243100  0.77678680     0.11200
H4632       H  0.40474220  0.08930869  0.77884054     0.13200
C4633       C  0.36639155  0.91605107  0.62211085     0.19300
C4634       C  0.36538140  0.91640405  0.63541103    -0.18800
C4635       C  0.37628870  0.91650404  0.64312502    -0.11000
C4636       C  0.38848582  0.91633387  0.63766394     0.21600
C4637       C  0.38950458  0.91568505  0.62441444    -0.20400
C4638       C  0.37863197  0.91549783  0.61671394    -0.11200
C4639       C  0.40024030  0.91855863  0.64525610    -0.15400
C4640       C  0.40145547  0.91582881  0.65769110    -0.29200
C4641       C  0.35462813  0.91765963  0.61426797    -0.03500
C4642       C  0.35409654  0.91575437  0.60163061    -0.40000
H4643       H  0.35612252  0.91702023  0.63984277     0.12700
H4644       H  0.37512514  0.91738353  0.65328884     0.12400
H4645       H  0.39878191  0.91574943  0.61997019     0.11800
H4646       H  0.37999984  0.91556257  0.60655785     0.12000
H4647       H  0.40810891  0.92321225  0.64043076     0.14800
H4648       H  0.39402626  0.91067332  0.66265228     0.13500
H4649       H  0.34624184  0.92130823  0.61900458     0.11200
H4650       H  0.36214839  0.91187436  0.59659629     0.13200
C4651       C  0.51637608  0.92456431  0.67156467     0.19300
C4652       C  0.50773855  0.93107812  0.66377727    -0.18800
C4653       C  0.49462443  0.92969681  0.66546871    -0.11000
C4654       C  0.48980282  0.92182026  0.67511950     0.21600
C4655       C  0.49843763  0.91523926  0.68290636    -0.20400
C4656       C  0.51160757  0.91651011  0.68110690    -0.11200
C4657       C  0.47595880  0.92141939  0.67807942    -0.15400
C4658       C  0.46684691  0.92385242  0.66939537    -0.29200
C4659       C  0.53016572  0.92743087  0.67018655    -0.03500
C4660       C  0.53957802  0.91954071  0.67367876    -0.40000
H4661       H  0.51116006  0.93748962  0.65651315     0.12700
H4662       H  0.48833751  0.93529128  0.65956082     0.12400
H4663       H  0.49498347  0.90930578  0.69055599     0.11800
H4664       H  0.51798822  0.91161779  0.68753307     0.12000
H4665       H  0.47322093  0.91959653  0.68786023     0.14800
H4666       H  0.46933170  0.92505797  0.65946771     0.13500
H4667       H  0.53266897  0.93655439  0.66608240     0.11200
H4668       H  0.53742091  0.91012969  0.67725030     0.13200
C4669       C  0.43623291  0.99369211  0.67509351     0.19300
C4670       C  0.44170630  0.00161109  0.68429314    -0.18800
C4671       C  0.44059943  0.01476849  0.68333486    -0.11000
C4672       C  0.43420174  0.02030882  0.67293154     0.21600
C4673       C  0.42902023  0.01233501  0.66356502    -0.20400
C4674       C  0.43002642  0.99916951  0.66460232    -0.11200
C4675       C  0.43237151  0.03424426  0.67162194    -0.15400
C4676       C  0.43888854  0.04291407  0.67838781    -0.29200
C4677       C  0.43714989  0.97978382  0.67674040    -0.03500
C4678       C  0.42795772  0.97178672  0.67284843    -0.40000
H4679       H  0.44655590  0.99758687  0.69244018     0.12700
H4680       H  0.44453110  0.02042344  0.69094265     0.12400
H4681       H  0.42412445  0.01630738  0.65542391     0.11800
H4682       H  0.42600953  0.99331714  0.65715442     0.12000
H4683       H  0.42550179  0.03752091  0.66461449     0.14800
H4684       H  0.44614211  0.04007669  0.68514323     0.13500
H4685       H  0.44521842  0.97609435  0.68206530     0.11200
H4686       H  0.41942552  0.97538321  0.66825637     0.13200
C4687       C  0.42654382  0.92602147  0.76626129     0.19300
C4688       C  0.41719430  0.93223098  0.75895949    -0.18800
C4689       C  0.41681355  0.93081017  0.74574403    -0.11000
C4690       C  0.42586963  0.92326487  0.73948024     0.21600
C4691       C  0.43489875  0.91674731  0.74683647    -0.20400
C4692       C  0.43529188  0.91818400  0.76003728    -0.11200
C4693       C  0.42654505  0.92229613  0.72535633    -0.15400
C4694       C  0.42171783  0.93111171  0.71746184    -0.29200
C4695       C  0.42807217  0.92811304  0.78017639    -0.03500
C4696       C  0.41892983  0.93278178  0.78775915    -0.40000
H4697       H  0.41038090  0.93851036  0.76329858     0.12700
H4698       H  0.40945523  0.93572179  0.74053358     0.12400
H4699       H  0.44193968  0.91081092  0.74231796     0.11800
H4700       H  0.44260613  0.91329260  0.76539731     0.12000
H4701       H  0.43217236  0.91466602  0.72135224     0.14800
H4702       H  0.41670390  0.93922934  0.72122196     0.13500
H4703       H  0.43724984  0.92575705  0.78436372     0.11200
H4704       H  0.40947908  0.93471857  0.78406860     0.13200
loop_ 
_geom_bond_atom_site_label_1 
_geom_bond_atom_site_label_2 
_geom_bond_distance 
_geom_bond_site_symmetry_2 
_ccdc_geom_bond_type 
In1           O3   2.247       .  S
In1           O4   2.251       .  S
In1          O12   2.274       .  S
In1           O6   2.241       .  S
In1           O8   2.265       .  S
In1           O9   2.235       .  S
In1          O10   2.257       .  S
In1          O13   2.266       .  S
C2            O8   1.258       .  A
C2           O10   1.256       .  A
C2         C4658   1.476       .  S
O3           C11   1.258       .  A
O4           C11   1.261       .  A
C5           O12   1.260       .  A
C5            O6   1.257       .  A
C5         C4640   1.478       .  S
C7            O9   1.260       .  A
C7           O13   1.265       .  A
C7         C4694   1.477       .  S
C11        C4678   1.471       .  S
In14         O16   2.238       .  S
In14         O17   2.265       .  S
In14         O25   2.254       .  S
In14         O19   2.268       .  S
In14         O21   2.238       .  S
In14         O22   2.237       .  S
In14         O23   2.262       .  S
In14         O26   2.248       .  S
C15          O21   1.259       .  A
C15          O23   1.261       .  A
C15        C4622   1.476       .  S
O16          C24   1.256       .  A
O17          C24   1.263       .  A
C18          O25   1.257       .  A
C18          O19   1.260       .  A
C18        C4586   1.478       .  S
C20          O22   1.260       .  A
C20          O26   1.263       .  A
C20        C4606   1.471       .  S
C24        C4676   1.473       .  S
In27         O29   2.240       .  S
In27         O30   2.243       .  S
In27         O38   2.250       .  S
In27         O32   2.266       .  S
In27         O34   2.259       .  S
In27         O35   2.242       .  S
In27         O36   2.238       .  S
In27         O39   2.258       .  S
C28          O34   1.262       .  A
C28          O36   1.259       .  A
C28        C4568   1.476       .  S
O29          C37   1.260       .  A
O30          C37   1.262       .  A
C31          O38   1.258       .  A
C31          O32   1.260       .  A
C31        C4532   1.478       .  S
C33          O35   1.262       .  A
C33          O39   1.261       .  A
C33        C4660   1.478       .  S
C37        C4550   1.471       .  S
In40         O42   2.236       .  S
In40         O43   2.248       .  S
In40         O51   2.257       .  S
In40         O45   2.260       .  S
In40         O47   2.263       .  S
In40         O48   2.242       .  S
In40         O49   2.230       .  S
In40         O52   2.266       .  S
C41          O47   1.261       .  A
C41          O49   1.258       .  A
C41        C4604   1.474       .  S
O42          C50   1.259       .  A
O43          C50   1.262       .  A
C44          O51   1.260       .  A
C44          O45   1.259       .  A
C44        C4496   1.480       .  S
C46          O48   1.259       .  A
C46          O52   1.261       .  A
C46        C4514   1.480       .  S
C50        C4552   1.470       .  S
In53         O55   2.251       .  S
In53         O56   2.253       .  S
In53         O64   2.254       .  S
In53         O58   2.269       .  S
In53         O60   2.260       .  S
In53         O61   2.257       .  S
In53         O62   2.245       .  S
In53         O65   2.244       .  S
C54          O60   1.262       .  A
C54          O62   1.261       .  A
C54        C4570   1.478       .  S
O55          C63   1.258       .  A
O56          C63   1.258       .  A
C57          O64   1.259       .  A
C57          O58   1.261       .  A
C57        C4442   1.483       .  S
C59          O61   1.261       .  A
C59          O65   1.259       .  A
C59        C4478   1.474       .  S
C63        C4460   1.473       .  S
In66         O68   2.236       .  S
In66         O69   2.259       .  S
In66         O77   2.278       .  S
In66         O71   2.270       .  S
In66         O73   2.261       .  S
In66         O74   2.231       .  S
In66         O75   2.246       .  S
In66         O78   2.286       .  S
C67          O73   1.261       .  A
C67          O75   1.261       .  A
C67        C4480   1.478       .  S
O68          C76   1.262       .  A
O69          C76   1.262       .  A
C70          O77   1.258       .  A
C70          O71   1.256       .  A
C70        C4406   1.484       .  S
C72          O74   1.256       .  A
C72          O78   1.265       .  A
C72        C4516   1.477       .  S
C76        C4424   1.478       .  S
In79         O81   2.245       .  S
In79         O82   2.258       .  S
In79         O90   2.261       .  S
In79         O84   2.252       .  S
In79         O86   2.241       .  S
In79         O87   2.249       .  S
In79         O88   2.260       .  S
In79         O91   2.254       .  S
C80          O86   1.259       .  A
C80          O88   1.260       .  A
C80        C4388   1.474       .  S
O81          C89   1.261       .  A
O82          C89   1.259       .  A
C83          O90   1.258       .  A
C83          O84   1.259       .  A
C83        C4370   1.477       .  S
C85          O87   1.261       .  A
C85          O91   1.261       .  A
C85        C4696   1.477       .  S
C89        C4462   1.475       .  S
In92         O94   2.246       .  S
In92         O95   2.249       .  S
In92        O103   2.279       .  S
In92         O97   2.258       .  S
In92         O99   2.264       .  S
In92        O100   2.253       .  S
In92        O101   2.256       .  S
In92        O104   2.259       .  S
C93          O99   1.260       .  A
C93         O101   1.260       .  A
C93        C4624   1.479       .  S
O94         C102   1.262       .  A
O95         C102   1.262       .  A
C96         O103   1.258       .  A
C96          O97   1.256       .  A
C96        C4354   1.480       .  S
C98         O100   1.259       .  A
C98         O104   1.258       .  A
C98        C4390   1.475       .  S
C102       C4426   1.475       .  S
In105       O107   2.253       .  S
In105       O108   2.244       .  S
In105       O116   2.250       .  S
In105       O110   2.267       .  S
In105       O112   2.273       .  S
In105       O113   2.244       .  S
In105       O114   2.233       .  S
In105       O117   2.259       .  S
C106        O112   1.262       .  A
C106        O114   1.260       .  A
C106       C4298   1.482       .  S
O107        C115   1.260       .  A
O108        C115   1.260       .  A
C109        O116   1.256       .  A
C109        O110   1.259       .  A
C109       C4372   1.475       .  S
C111        O113   1.261       .  A
C111        O117   1.262       .  A
C111       C4334   1.478       .  S
C115       C4318   1.474       .  S
In118       O120   2.242       .  S
In118       O121   2.245       .  S
In118       O129   2.274       .  S
In118       O123   2.245       .  S
In118       O125   2.257       .  S
In118       O126   2.236       .  S
In118       O127   2.256       .  S
In118       O130   2.260       .  S
C119        O125   1.260       .  A
C119        O127   1.259       .  A
C119       C4336   1.477       .  S
O120        C128   1.259       .  A
O121        C128   1.261       .  A
C122        O129   1.260       .  A
C122        O123   1.258       .  A
C122       C4244   1.483       .  S
C124        O126   1.259       .  A
C124        O130   1.261       .  A
C124       C4262   1.475       .  S
C128       C4280   1.467       .  S
In131       O133   2.243       .  S
In131       O134   2.246       .  S
In131       O142   2.267       .  S
In131       O136   2.252       .  S
In131       O138   2.269       .  S
In131       O139   2.243       .  S
In131       O140   2.238       .  S
In131       O143   2.255       .  S
C132        O138   1.261       .  A
C132        O140   1.259       .  A
C132       C4226   1.480       .  S
O133        C141   1.260       .  A
O134        C141   1.262       .  A
C135        O142   1.260       .  A
C135        O136   1.258       .  A
C135       C4444   1.480       .  S
C137        O139   1.260       .  A
C137        O143   1.261       .  A
C137       C4210   1.475       .  S
C141       C4316   1.472       .  S
In144       O146   2.244       .  S
In144       O147   2.233       .  S
In144       O155   2.245       .  S
In144       O149   2.254       .  S
In144       O151   2.263       .  S
In144       O152   2.244       .  S
In144       O153   2.235       .  S
In144       O156   2.254       .  S
C145        O151   1.261       .  A
C145        O153   1.257       .  A
C145       C4192   1.476       .  S
O146        C154   1.259       .  A
O147        C154   1.261       .  A
C148        O155   1.260       .  A
C148        O149   1.259       .  A
C148       C4172   1.474       .  S
C150        O152   1.259       .  A
C150        O156   1.261       .  A
C150       C4228   1.472       .  S
C154       C4282   1.467       .  S
In157       O159   2.251       .  S
In157       O160   2.270       .  S
In157       O168   2.262       .  S
In157       O162   2.269       .  S
In157       O164   2.265       .  S
In157       O165   2.245       .  S
In157       O166   2.250       .  S
In157       O169   2.249       .  S
C158        O164   1.260       .  A
C158        O166   1.258       .  A
C158       C4154   1.478       .  S
O159        C167   1.255       .  A
O160        C167   1.260       .  A
C161        O168   1.259       .  A
C161        O162   1.260       .  A
C161       C4118   1.483       .  S
C163        O165   1.263       .  A
C163        O169   1.262       .  A
C163       C4208   1.475       .  S
C167       C4136   1.475       .  S
In170       O172   2.249       .  S
In170       O173   2.250       .  S
In170       O181   2.267       .  S
In170       O175   2.264       .  S
In170       O177   2.254       .  S
In170       O178   2.247       .  S
In170       O179   2.271       .  S
In170       O182   2.278       .  S
C171        O177   1.258       .  A
C171        O179   1.260       .  A
C171       C4190   1.479       .  S
O172        C180   1.261       .  A
O173        C180   1.263       .  A
C174        O181   1.258       .  A
C174        O175   1.257       .  A
C174       C4084   1.480       .  S
C176        O178   1.258       .  A
C176        O182   1.262       .  A
C176       C4100   1.480       .  S
C180       C4138   1.476       .  S
In183       O185   2.253       .  S
In183       O186   2.243       .  S
In183       O194   2.247       .  S
In183       O188   2.279       .  S
In183       O190   2.272       .  S
In183       O191   2.243       .  S
In183       O192   2.253       .  S
In183       O195   2.256       .  S
C184        O190   1.260       .  A
C184        O192   1.258       .  A
C184       C4102   1.482       .  S
O185        C193   1.263       .  A
O186        C193   1.260       .  A
C187        O194   1.255       .  A
C187        O188   1.261       .  A
C187       C4048   1.478       .  S
C189        O191   1.259       .  A
C189        O195   1.261       .  A
C189       C4264   1.473       .  S
C193       C4066   1.474       .  S
In196       O198   2.248       .  S
In196       O199   2.250       .  S
In196       O207   2.255       .  S
In196       O201   2.280       .  S
In196       O203   2.279       .  S
In196       O204   2.242       .  S
In196       O205   2.231       .  S
In196       O208   2.261       .  S
C197        O203   1.265       .  A
C197        O205   1.257       .  A
C197       C4300   1.476       .  S
O198        C206   1.260       .  A
O199        C206   1.261       .  A
C200        O207   1.258       .  A
C200        O201   1.261       .  A
C200       C4028   1.484       .  S
C202        O204   1.262       .  A
C202        O208   1.262       .  A
C202       C4156   1.479       .  S
C206       C4064   1.474       .  S
In209       O211   2.251       .  S
In209       O212   2.242       .  S
In209       O220   2.257       .  S
In209       O214   2.269       .  S
In209       O216   2.272       .  S
In209       O217   2.249       .  S
In209       O218   2.231       .  S
In209       O221   2.260       .  S
C210        O216   1.265       .  A
C210        O218   1.259       .  A
C210       C3974   1.476       .  S
O211        C219   1.259       .  A
O212        C219   1.261       .  A
C213        O220   1.259       .  A
C213        O214   1.261       .  A
C213       C3958   1.484       .  S
C215        O217   1.260       .  A
C215        O221   1.262       .  A
C215       C4010   1.480       .  S
C219       C3992   1.473       .  S
In222       O224   2.264       .  S
In222       O225   2.249       .  S
In222       O233   2.262       .  S
In222       O227   2.277       .  S
In222       O229   2.269       .  S
In222       O230   2.250       .  S
In222       O231   2.251       .  S
In222       O234   2.265       .  S
C223        O229   1.261       .  A
C223        O231   1.260       .  A
C223       C4012   1.482       .  S
O224        C232   1.259       .  A
O225        C232   1.257       .  A
C226        O233   1.258       .  A
C226        O227   1.260       .  A
C226       C3902   1.485       .  S
C228        O230   1.261       .  A
C228        O234   1.263       .  A
C228       C3920   1.482       .  S
C232       C3938   1.474       .  S
In235       O237   2.256       .  S
In235       O238   2.253       .  S
In235       O246   2.272       .  S
In235       O240   2.243       .  S
In235       O242   2.261       .  S
In235       O243   2.237       .  S
In235       O244   2.258       .  S
In235       O247   2.268       .  S
C236        O242   1.260       .  A
C236        O244   1.260       .  A
C236       C3884   1.480       .  S
O237        C245   1.259       .  A
O238        C245   1.257       .  A
C239        O246   1.260       .  A
C239        O240   1.258       .  A
C239       C3848   1.479       .  S
C241        O243   1.259       .  A
C241        O247   1.264       .  A
C241       C3866   1.478       .  S
C245       C3994   1.473       .  S
In248       O250   2.256       .  S
In248       O251   2.261       .  S
In248       O259   2.277       .  S
In248       O253   2.275       .  S
In248       O255   2.267       .  S
In248       O256   2.244       .  S
In248       O257   2.265       .  S
In248       O260   2.261       .  S
C249        O255   1.258       .  A
C249        O257   1.260       .  A
C249       C3830   1.482       .  S
O250        C258   1.257       .  A
O251        C258   1.259       .  A
C252        O259   1.258       .  A
C252        O253   1.257       .  A
C252       C3814   1.486       .  S
C254        O256   1.262       .  A
C254        O260   1.265       .  A
C254       C3886   1.481       .  S
C258       C3940   1.475       .  S
In261       O263   2.250       .  S
In261       O264   2.250       .  S
In261       O272   2.278       .  S
In261       O266   2.238       .  S
In261       O268   2.266       .  S
In261       O269   2.238       .  S
In261       O270   2.270       .  S
In261       O273   2.270       .  S
C262        O268   1.259       .  A
C262        O270   1.259       .  A
C262       C3794   1.483       .  S
O263        C271   1.256       .  A
O264        C271   1.259       .  A
C265        O272   1.262       .  A
C265        O266   1.258       .  A
C265       C3758   1.481       .  S
C267        O269   1.259       .  A
C267        O273   1.265       .  A
C267       C3868   1.479       .  S
C271       C3778   1.471       .  S
In274       O276   2.250       .  S
In274       O277   2.240       .  S
In274       O285   2.277       .  S
In274       O279   2.243       .  S
In274       O281   2.256       .  S
In274       O282   2.239       .  S
In274       O283   2.271       .  S
In274       O286   2.272       .  S
C275        O281   1.258       .  A
C275        O283   1.261       .  A
C275       C3832   1.482       .  S
O276        C284   1.259       .  A
O277        C284   1.260       .  A
C278        O285   1.261       .  A
C278        O279   1.257       .  A
C278       C3722   1.481       .  S
C280        O282   1.258       .  A
C280        O286   1.264       .  A
C280       C3740   1.478       .  S
C284       C3776   1.469       .  S
In287       O289   2.249       .  S
In287       O290   2.244       .  S
In287       O298   2.274       .  S
In287       O292   2.254       .  S
In287       O294   2.260       .  S
In287       O295   2.254       .  S
In287       O296   2.259       .  S
In287       O299   2.263       .  S
C288        O294   1.259       .  A
C288        O296   1.259       .  A
C288       C3742   1.479       .  S
O289        C297   1.262       .  A
O290        C297   1.260       .  A
C291        O298   1.261       .  A
C291        O292   1.257       .  A
C291       C3688   1.480       .  S
C293        O295   1.260       .  A
C293        O299   1.261       .  A
C293       C3922   1.480       .  S
C297       C3704   1.472       .  S
In300       O302   2.260       .  S
In300       O303   2.245       .  S
In300       O311   2.258       .  S
In300       O305   2.267       .  S
In300       O307   2.269       .  S
In300       O308   2.250       .  S
In300       O309   2.243       .  S
In300       O312   2.267       .  S
C301        O307   1.261       .  A
C301        O309   1.260       .  A
C301       C3976   1.481       .  S
O302        C310   1.259       .  A
O303        C310   1.259       .  A
C304        O311   1.257       .  A
C304        O305   1.258       .  A
C304       C3668   1.478       .  S
C306        O308   1.260       .  A
C306        O312   1.263       .  A
C306       C3796   1.482       .  S
C310       C3706   1.475       .  S
In313       O315   2.241       .  S
In313       O316   2.268       .  S
In313       O324   2.267       .  S
In313       O318   2.259       .  S
In313       O320   2.257       .  S
In313       O321   2.253       .  S
In313       O322   2.256       .  S
In313       O325   2.263       .  S
C314        O320   1.261       .  A
C314        O322   1.262       .  A
C314       C3614   1.481       .  S
O315        C323   1.257       .  A
O316        C323   1.260       .  A
C317        O324   1.259       .  A
C317        O318   1.258       .  A
C317       C3596   1.480       .  S
C319        O321   1.260       .  A
C319        O325   1.260       .  A
C319       C3650   1.480       .  S
C323       C3632   1.473       .  S
In326       O328   2.250       .  S
In326       O329   2.251       .  S
In326       O337   2.253       .  S
In326       O331   2.243       .  S
In326       O333   2.260       .  S
In326       O334   2.245       .  S
In326       O335   2.235       .  S
In326       O338   2.252       .  S
C327        O333   1.261       .  A
C327        O335   1.260       .  A
C327       C3578   1.475       .  S
O328        C336   1.258       .  A
O329        C336   1.260       .  A
C330        O337   1.259       .  A
C330        O331   1.260       .  A
C330       C3542   1.474       .  S
C332        O334   1.259       .  A
C332        O338   1.261       .  A
C332       C3560   1.473       .  S
C336       C3634   1.474       .  S
In339       O341   2.249       .  S
In339       O342   2.248       .  S
In339       O350   2.267       .  S
In339       O344   2.278       .  S
In339       O346   2.278       .  S
In339       O347   2.243       .  S
In339       O348   2.237       .  S
In339       O351   2.262       .  S
C340        O346   1.263       .  A
C340        O348   1.258       .  A
C340       C3524   1.481       .  S
O341        C349   1.258       .  A
O342        C349   1.260       .  A
C343        O350   1.258       .  A
C343        O344   1.259       .  A
C343       C4120   1.485       .  S
C345        O347   1.260       .  A
C345        O351   1.264       .  A
C345       C3616   1.480       .  S
C349       C3506   1.471       .  S
In352       O354   2.257       .  S
In352       O355   2.236       .  S
In352       O363   2.264       .  S
In352       O357   2.259       .  S
In352       O359   2.266       .  S
In352       O360   2.245       .  S
In352       O361   2.234       .  S
In352       O364   2.267       .  S
C353        O359   1.262       .  A
C353        O361   1.258       .  A
C353       C3562   1.477       .  S
O354        C362   1.261       .  A
O355        C362   1.260       .  A
C356        O363   1.260       .  A
C356        O357   1.258       .  A
C356       C4082   1.479       .  S
C358        O360   1.257       .  A
C358        O364   1.261       .  A
C358       C3488   1.475       .  S
C362       C3508   1.472       .  S
In365       O367   2.252       .  S
In365       O368   2.241       .  S
In365       O376   2.236       .  S
In365       O370   2.277       .  S
In365       O372   2.282       .  S
In365       O373   2.239       .  S
In365       O374   2.219       .  S
In365       O377   2.270       .  S
C366        O372   1.266       .  A
C366        O374   1.256       .  A
C366       C3526   1.473       .  S
O367        C375   1.260       .  A
O368        C375   1.261       .  A
C369        O376   1.257       .  A
C369        O370   1.262       .  A
C369       C3850   1.476       .  S
C371        O373   1.260       .  A
C371        O377   1.263       .  A
C371       C3470   1.482       .  S
C375       C3452   1.475       .  S
In378       O380   2.248       .  S
In378       O381   2.259       .  S
In378       O389   2.246       .  S
In378       O383   2.259       .  S
In378       O385   2.267       .  S
In378       O386   2.259       .  S
In378       O387   2.246       .  S
In378       O390   2.236       .  S
C379        O385   1.262       .  A
C379        O387   1.259       .  A
C379       C3472   1.478       .  S
O380        C388   1.256       .  A
O381        C388   1.258       .  A
C382        O389   1.259       .  A
C382        O383   1.260       .  A
C382       C3418   1.475       .  S
C384        O386   1.262       .  A
C384        O390   1.261       .  A
C384       C3490   1.476       .  S
C388       C3434   1.470       .  S
In391       O393   2.243       .  S
In391       O394   2.250       .  S
In391       O402   2.265       .  S
In391       O396   2.267       .  S
In391       O398   2.270       .  S
In391       O399   2.244       .  S
In391       O400   2.251       .  S
In391       O403   2.262       .  S
C392        O398   1.260       .  A
C392        O400   1.258       .  A
C392       C3398   1.479       .  S
O393        C401   1.260       .  A
O394        C401   1.263       .  A
C395        O402   1.259       .  A
C395        O396   1.259       .  A
C395       C3956   1.483       .  S
C397        O399   1.260       .  A
C397        O403   1.262       .  A
C397       C3652   1.479       .  S
C401       C3454   1.474       .  S
In404       O406   2.255       .  S
In404       O407   2.243       .  S
In404       O415   2.253       .  S
In404       O409   2.260       .  S
In404       O411   2.238       .  S
In404       O412   2.262       .  S
In404       O413   2.257       .  S
In404       O416   2.257       .  S
C405        O411   1.260       .  A
C405        O413   1.263       .  A
C405       C3580   1.476       .  S
O406        C414   1.258       .  A
O407        C414   1.259       .  A
C408        O415   1.260       .  A
C408        O409   1.261       .  A
C408       C3380   1.479       .  S
C410        O412   1.259       .  A
C410        O416   1.258       .  A
C410       C3400   1.477       .  S
C414       C3436   1.472       .  S
In417       O419   2.249       .  S
In417       O420   2.253       .  S
In417       O428   2.258       .  S
In417       O422   2.266       .  S
In417       O424   2.262       .  S
In417       O425   2.263       .  S
In417       O426   2.263       .  S
In417       O429   2.235       .  S
C418        O424   1.258       .  A
C418        O426   1.257       .  A
C418       C3362   1.478       .  S
O419        C427   1.260       .  A
O420        C427   1.258       .  A
C421        O428   1.258       .  A
C421        O422   1.259       .  A
C421       C3812   1.481       .  S
C423        O425   1.265       .  A
C423        O429   1.262       .  A
C423       C3344   1.481       .  S
C427       C3326   1.473       .  S
In430       O432   2.248       .  S
In430       O433   2.238       .  S
In430       O441   2.231       .  S
In430       O435   2.275       .  S
In430       O437   2.287       .  S
In430       O438   2.232       .  S
In430       O439   2.224       .  S
In430       O442   2.259       .  S
C431        O437   1.266       .  A
C431        O439   1.257       .  A
C431       C3308   1.478       .  S
O432        C440   1.259       .  A
O433        C440   1.261       .  A
C434        O441   1.257       .  A
C434        O435   1.265       .  A
C434       C3274   1.476       .  S
C436        O438   1.262       .  A
C436        O442   1.265       .  A
C436       C3364   1.479       .  S
C440       C3292   1.470       .  S
In443       O445   2.240       .  S
In443       O446   2.250       .  S
In443       O454   2.259       .  S
In443       O448   2.276       .  S
In443       O450   2.273       .  S
In443       O451   2.238       .  S
In443       O452   2.237       .  S
In443       O455   2.270       .  S
C444        O450   1.263       .  A
C444        O452   1.258       .  A
C444       C3254   1.481       .  S
O445        C453   1.258       .  A
O446        C453   1.261       .  A
C447        O454   1.258       .  A
C447        O448   1.260       .  A
C447       C4030   1.484       .  S
C449        O451   1.259       .  A
C449        O455   1.264       .  A
C449       C3346   1.476       .  S
C453       C3236   1.470       .  S
In456       O458   2.227       .  S
In456       O459   2.256       .  S
In456       O467   2.264       .  S
In456       O461   2.266       .  S
In456       O463   2.285       .  S
In456       O464   2.244       .  S
In456       O465   2.222       .  S
In456       O468   2.253       .  S
C457        O463   1.265       .  A
C457        O465   1.258       .  A
C457       C3310   1.484       .  S
O458        C466   1.256       .  A
O459        C466   1.263       .  A
C460        O467   1.258       .  A
C460        O461   1.258       .  A
C460       C4046   1.481       .  S
C462        O464   1.263       .  A
C462        O468   1.263       .  A
C462       C3220   1.478       .  S
C466       C3238   1.468       .  S
In469       O471   2.258       .  S
In469       O472   2.240       .  S
In469       O480   2.254       .  S
In469       O474   2.282       .  S
In469       O476   2.261       .  S
In469       O477   2.247       .  S
In469       O478   2.243       .  S
In469       O481   2.266       .  S
C470        O476   1.262       .  A
C470        O478   1.259       .  A
C470       C3182   1.476       .  S
O471        C479   1.262       .  A
O472        C479   1.258       .  A
C473        O480   1.257       .  A
C473        O474   1.261       .  A
C473       C3904   1.483       .  S
C475        O477   1.260       .  A
C475        O481   1.260       .  A
C475       C3200   1.479       .  S
C479       C3328   1.471       .  S
In482       O484   2.244       .  S
In482       O485   2.244       .  S
In482       O493   2.261       .  S
In482       O487   2.262       .  S
In482       O489   2.255       .  S
In482       O490   2.227       .  S
In482       O491   2.262       .  S
In482       O494   2.268       .  S
C483        O489   1.260       .  A
C483        O491   1.260       .  A
C483       C3202   1.478       .  S
O484        C492   1.258       .  A
O485        C492   1.260       .  A
C486        O493   1.258       .  A
C486        O487   1.259       .  A
C486       C3146   1.479       .  S
C488        O490   1.258       .  A
C488        O494   1.262       .  A
C488       C3164   1.476       .  S
C492       C3290   1.469       .  S
In495       O497   2.235       .  S
In495       O498   2.251       .  S
In495       O506   2.260       .  S
In495       O500   2.270       .  S
In495       O502   2.260       .  S
In495       O503   2.253       .  S
In495       O504   2.242       .  S
In495       O507   2.260       .  S
C496        O502   1.260       .  A
C496        O504   1.258       .  A
C496       C3184   1.476       .  S
O497        C505   1.259       .  A
O498        C505   1.262       .  A
C499        O506   1.257       .  A
C499        O500   1.258       .  A
C499       C3110   1.480       .  S
C501        O503   1.260       .  A
C501        O507   1.261       .  A
C501       C3256   1.479       .  S
C505       C3128   1.468       .  S
In508       O510   2.246       .  S
In508       O511   2.233       .  S
In508       O519   2.251       .  S
In508       O513   2.261       .  S
In508       O515   2.281       .  S
In508       O516   2.237       .  S
In508       O517   2.228       .  S
In508       O520   2.249       .  S
C509        O515   1.263       .  A
C509        O517   1.255       .  A
C509       C3218   1.472       .  S
O510        C518   1.260       .  A
O511        C518   1.262       .  A
C512        O519   1.258       .  A
C512        O513   1.261       .  A
C512       C3092   1.478       .  S
C514        O516   1.261       .  A
C514        O520   1.262       .  A
C514       C3166   1.474       .  S
C518       C3130   1.470       .  S
In521       O523   2.256       .  S
In521       O524   2.241       .  S
In521       O532   2.273       .  S
In521       O526   2.254       .  S
In521       O528   2.247       .  S
In521       O529   2.270       .  S
In521       O530   2.252       .  S
In521       O533   2.235       .  S
C522        O528   1.260       .  A
C522        O530   1.262       .  A
C522       C3056   1.475       .  S
O523        C531   1.262       .  A
O524        C531   1.258       .  A
C525        O532   1.259       .  A
C525        O526   1.257       .  A
C525       C4408   1.480       .  S
C527        O529   1.261       .  A
C527        O533   1.258       .  A
C527       C3074   1.477       .  S
C531       C3038   1.471       .  S
In534       O536   2.245       .  S
In534       O537   2.242       .  S
In534       O545   2.256       .  S
In534       O539   2.267       .  S
In534       O541   2.267       .  S
In534       O542   2.233       .  S
In534       O543   2.252       .  S
In534       O546   2.258       .  S
C535        O541   1.259       .  A
C535        O543   1.257       .  A
C535       C3076   1.476       .  S
O536        C544   1.260       .  A
O537        C544   1.258       .  A
C538        O545   1.258       .  A
C538        O539   1.259       .  A
C538       C2986   1.481       .  S
C540        O542   1.261       .  A
C540        O546   1.264       .  A
C540       C3020   1.478       .  S
C544       C3002   1.468       .  S
In547       O549   2.242       .  S
In547       O550   2.242       .  S
In547       O558   2.274       .  S
In547       O552   2.261       .  S
In547       O554   2.242       .  S
In547       O555   2.252       .  S
In547       O556   2.252       .  S
In547       O559   2.279       .  S
C548        O554   1.260       .  A
C548        O556   1.263       .  A
C548       C3058   1.474       .  S
O549        C557   1.259       .  A
O550        C557   1.260       .  A
C551        O558   1.260       .  A
C551        O552   1.256       .  A
C551       C3598   1.482       .  S
C553        O555   1.257       .  A
C553        O559   1.262       .  A
C553       C2966   1.484       .  S
C557       C2950   1.468       .  S
In560       O562   2.252       .  S
In560       O563   2.250       .  S
In560       O571   2.257       .  S
In560       O565   2.254       .  S
In560       O567   2.224       .  S
In560       O568   2.235       .  S
In560       O569   2.270       .  S
In560       O572   2.268       .  S
C561        O567   1.260       .  A
C561        O569   1.263       .  A
C561       C2930   1.480       .  S
O562        C570   1.259       .  A
O563        C570   1.257       .  A
C564        O571   1.258       .  A
C564        O565   1.258       .  A
C564       C3544   1.475       .  S
C566        O568   1.258       .  A
C566        O572   1.263       .  A
C566       C3022   1.474       .  S
C570       C2948   1.471       .  S
In573       O575   2.246       .  S
In573       O576   2.240       .  S
In573       O584   2.271       .  S
In573       O578   2.266       .  S
In573       O580   2.274       .  S
In573       O581   2.251       .  S
In573       O582   2.251       .  S
In573       O585   2.250       .  S
C574        O580   1.261       .  A
C574        O582   1.257       .  A
C574       C2968   1.479       .  S
O575        C583   1.260       .  A
O576        C583   1.258       .  A
C577        O584   1.257       .  A
C577        O578   1.257       .  A
C577       C3112   1.482       .  S
C579        O581   1.262       .  A
C579        O585   1.264       .  A
C579       C2894   1.478       .  S
C583       C2912   1.467       .  S
In586       O588   2.262       .  S
In586       O589   2.243       .  S
In586       O597   2.265       .  S
In586       O591   2.248       .  S
In586       O593   2.260       .  S
In586       O594   2.277       .  S
In586       O595   2.244       .  S
In586       O598   2.239       .  S
C587        O593   1.262       .  A
C587        O595   1.262       .  A
C587       C2878   1.479       .  S
O588        C596   1.259       .  A
O589        C596   1.256       .  A
C590        O597   1.262       .  A
C590        O591   1.260       .  A
C590       C3094   1.480       .  S
C592        O594   1.261       .  A
C592        O598   1.256       .  A
C592       C2932   1.475       .  S
C596       C2914   1.470       .  S
In599       O601   2.244       .  S
In599       O602   2.246       .  S
In599       O610   2.263       .  S
In599       O604   2.258       .  S
In599       O606   2.258       .  S
In599       O607   2.255       .  S
In599       O608   2.252       .  S
In599       O611   2.264       .  S
C600        O606   1.261       .  A
C600        O608   1.261       .  A
C600       C2858   1.478       .  S
O601        C609   1.261       .  A
O602        C609   1.259       .  A
C603        O610   1.260       .  A
C603        O604   1.259       .  A
C603       C4352   1.480       .  S
C605        O607   1.258       .  A
C605        O611   1.259       .  A
C605       C2896   1.478       .  S
C609       C3040   1.472       .  S
In612       O614   2.249       .  S
In612       O615   2.246       .  S
In612       O623   2.238       .  S
In612       O617   2.268       .  S
In612       O619   2.268       .  S
In612       O620   2.260       .  S
In612       O621   2.232       .  S
In612       O624   2.252       .  S
C613        O619   1.265       .  A
C613        O621   1.259       .  A
C613       C2876   1.475       .  S
O614        C622   1.260       .  A
O615        C622   1.257       .  A
C616        O623   1.258       .  A
C616        O617   1.261       .  A
C616       C2840   1.477       .  S
C618        O620   1.258       .  A
C618        O624   1.259       .  A
C618       C2860   1.477       .  S
C622       C3004   1.470       .  S
In625       O627   2.262       .  S
In625       O628   2.233       .  S
In625       O636   2.247       .  S
In625       O630   2.270       .  S
In625       O632   2.271       .  S
In625       O633   2.232       .  S
In625       O634   2.230       .  S
In625       O637   2.262       .  S
C626        O632   1.263       .  A
C626        O634   1.259       .  A
C626       C2822   1.479       .  S
O627        C635   1.260       .  A
O628        C635   1.259       .  A
C629        O636   1.256       .  A
C629        O630   1.260       .  A
C629       C4174   1.476       .  S
C631        O633   1.260       .  A
C631        O637   1.263       .  A
C631       C2804   1.477       .  S
C635       C2786   1.474       .  S
In638       O640   2.234       .  S
In638       O641   2.249       .  S
In638       O649   2.263       .  S
In638       O643   2.275       .  S
In638       O645   2.276       .  S
In638       O646   2.240       .  S
In638       O647   2.245       .  S
In638       O650   2.269       .  S
C639        O645   1.262       .  A
C639        O647   1.257       .  A
C639       C2768   1.483       .  S
O640        C648   1.259       .  A
O641        C648   1.262       .  A
C642        O649   1.258       .  A
C642        O643   1.260       .  A
C642       C2984   1.484       .  S
C644        O646   1.258       .  A
C644        O650   1.264       .  A
C644       C2824   1.476       .  S
C648       C2750   1.469       .  S
In651       O653   2.254       .  S
In651       O654   2.222       .  S
In651       O662   2.241       .  S
In651       O656   2.280       .  S
In651       O658   2.273       .  S
In651       O659   2.237       .  S
In651       O660   2.240       .  S
In651       O663   2.260       .  S
C652        O658   1.262       .  A
C652        O660   1.258       .  A
C652       C2732   1.481       .  S
O653        C661   1.262       .  A
O654        C661   1.261       .  A
C655        O662   1.256       .  A
C655        O656   1.262       .  A
C655       C2696   1.477       .  S
C657        O659   1.260       .  A
C657        O663   1.263       .  A
C657       C2806   1.477       .  S
C661       C2714   1.472       .  S
In664       O666   2.244       .  S
In664       O667   2.245       .  S
In664       O675   2.261       .  S
In664       O669   2.267       .  S
In664       O671   2.257       .  S
In664       O672   2.255       .  S
In664       O673   2.253       .  S
In664       O676   2.250       .  S
C665        O671   1.261       .  A
C665        O673   1.261       .  A
C665       C2770   1.480       .  S
O666        C674   1.258       .  A
O667        C674   1.261       .  A
C668        O675   1.260       .  A
C668        O669   1.260       .  A
C668       C2660   1.485       .  S
C670        O672   1.259       .  A
C670        O676   1.259       .  A
C670       C2678   1.475       .  S
C674       C2716   1.469       .  S
In677       O679   2.247       .  S
In677       O680   2.251       .  S
In677       O688   2.242       .  S
In677       O682   2.294       .  S
In677       O684   2.276       .  S
In677       O685   2.251       .  S
In677       O686   2.234       .  S
In677       O689   2.265       .  S
C678        O684   1.263       .  A
C678        O686   1.257       .  A
C678       C2624   1.481       .  S
O679        C687   1.259       .  A
O680        C687   1.260       .  A
C681        O688   1.256       .  A
C681        O682   1.262       .  A
C681       C4246   1.481       .  S
C683        O685   1.261       .  A
C683        O689   1.262       .  A
C683       C2644   1.481       .  S
C687       C2788   1.472       .  S
In690       O692   2.241       .  S
In690       O693   2.251       .  S
In690       O701   2.262       .  S
In690       O695   2.257       .  S
In690       O697   2.247       .  S
In690       O698   2.231       .  S
In690       O699   2.251       .  S
In690       O702   2.274       .  S
C691        O697   1.262       .  A
C691        O699   1.261       .  A
C691       C2642   1.477       .  S
O692        C700   1.259       .  A
O693        C700   1.261       .  A
C694        O701   1.258       .  A
C694        O695   1.256       .  A
C694       C2842   1.475       .  S
C696        O698   1.258       .  A
C696        O702   1.264       .  A
C696       C2608   1.475       .  S
C700       C2752   1.471       .  S
In703       O705   2.258       .  S
In703       O706   2.249       .  S
In703       O714   2.267       .  S
In703       O708   2.272       .  S
In703       O710   2.253       .  S
In703       O711   2.245       .  S
In703       O712   2.266       .  S
In703       O715   2.276       .  S
C704        O710   1.260       .  A
C704        O712   1.263       .  A
C704       C2626   1.481       .  S
O705        C713   1.260       .  A
O706        C713   1.261       .  A
C707        O714   1.257       .  A
C707        O708   1.257       .  A
C707       C2572   1.483       .  S
C709        O711   1.258       .  A
C709        O715   1.262       .  A
C709       C2734   1.479       .  S
C713       C2588   1.477       .  S
In716       O718   2.246       .  S
In716       O719   2.254       .  S
In716       O727   2.269       .  S
In716       O721   2.263       .  S
In716       O723   2.267       .  S
In716       O724   2.232       .  S
In716       O725   2.248       .  S
In716       O728   2.275       .  S
C717        O723   1.261       .  A
C717        O725   1.260       .  A
C717       C2680   1.480       .  S
O718        C726   1.260       .  A
O719        C726   1.261       .  A
C720        O727   1.259       .  A
C720        O721   1.258       .  A
C720       C2552   1.483       .  S
C722        O724   1.259       .  A
C722        O728   1.263       .  A
C722       C2606   1.482       .  S
C726       C2590   1.475       .  S
In729       O731   2.256       .  S
In729       O732   2.263       .  S
In729       O740   2.269       .  S
In729       O734   2.245       .  S
In729       O736   2.262       .  S
In729       O737   2.236       .  S
In729       O738   2.248       .  S
In729       O741   2.273       .  S
C730        O736   1.261       .  A
C730        O738   1.260       .  A
C730       C2518   1.478       .  S
O731        C739   1.257       .  A
O732        C739   1.260       .  A
C733        O740   1.260       .  A
C733        O734   1.259       .  A
C733       C2482   1.480       .  S
C735        O737   1.259       .  A
C735        O741   1.263       .  A
C735       C2534   1.476       .  S
C739       C2498   1.476       .  S
In742       O744   2.240       .  S
In742       O745   2.240       .  S
In742       O753   2.266       .  S
In742       O747   2.262       .  S
In742       O749   2.264       .  S
In742       O750   2.244       .  S
In742       O751   2.247       .  S
In742       O754   2.276       .  S
C743        O749   1.263       .  A
C743        O751   1.260       .  A
C743       C2536   1.480       .  S
O744        C752   1.259       .  A
O745        C752   1.261       .  A
C746        O753   1.259       .  A
C746        O747   1.258       .  A
C746       C2428   1.481       .  S
C748        O750   1.256       .  A
C748        O754   1.262       .  A
C748       C2462   1.478       .  S
C752       C2444   1.467       .  S
In755       O757   2.249       .  S
In755       O758   2.247       .  S
In755       O766   2.252       .  S
In755       O760   2.265       .  S
In755       O762   2.268       .  S
In755       O763   2.235       .  S
In755       O764   2.248       .  S
In755       O767   2.268       .  S
C756        O762   1.261       .  A
C756        O764   1.257       .  A
C756       C2516   1.477       .  S
O757        C765   1.259       .  A
O758        C765   1.261       .  A
C759        O766   1.257       .  A
C759        O760   1.259       .  A
C759       C4642   1.476       .  S
C761        O763   1.261       .  A
C761        O767   1.263       .  A
C761       C2408   1.481       .  S
C765       C2390   1.472       .  S
In768       O770   2.249       .  S
In768       O771   2.240       .  S
In768       O779   2.272       .  S
In768       O773   2.240       .  S
In768       O775   2.249       .  S
In768       O776   2.239       .  S
In768       O777   2.264       .  S
In768       O780   2.265       .  S
C769        O775   1.257       .  A
C769        O777   1.261       .  A
C769       C2372   1.478       .  S
O770        C778   1.259       .  A
O771        C778   1.260       .  A
C772        O779   1.261       .  A
C772        O773   1.257       .  A
C772       C4588   1.478       .  S
C774        O776   1.259       .  A
C774        O780   1.264       .  A
C774       C2464   1.478       .  S
C778       C2392   1.471       .  S
In781       O783   2.255       .  S
In781       O784   2.254       .  S
In781       O792   2.248       .  S
In781       O786   2.258       .  S
In781       O788   2.267       .  S
In781       O789   2.261       .  S
In781       O790   2.249       .  S
In781       O793   2.242       .  S
C782        O788   1.261       .  A
C782        O790   1.259       .  A
C782       C2410   1.477       .  S
O783        C791   1.260       .  A
O784        C791   1.258       .  A
C785        O792   1.260       .  A
C785        O786   1.261       .  A
C785       C2570   1.478       .  S
C787        O789   1.260       .  A
C787        O793   1.259       .  A
C787       C2336   1.477       .  S
C791       C2354   1.475       .  S
In794       O796   2.253       .  S
In794       O797   2.245       .  S
In794       O805   2.273       .  S
In794       O799   2.265       .  S
In794       O801   2.266       .  S
In794       O802   2.266       .  S
In794       O803   2.243       .  S
In794       O806   2.247       .  S
C795        O801   1.263       .  A
C795        O803   1.260       .  A
C795       C2318   1.477       .  S
O796        C804   1.262       .  A
O797        C804   1.259       .  A
C798        O805   1.259       .  A
C798        O799   1.258       .  A
C798       C2554   1.482       .  S
C800        O802   1.260       .  A
C800        O806   1.258       .  A
C800       C2374   1.478       .  S
C804       C2356   1.473       .  S
In807       O809   2.243       .  S
In807       O810   2.258       .  S
In807       O818   2.264       .  S
In807       O812   2.259       .  S
In807       O814   2.244       .  S
In807       O815   2.234       .  S
In807       O816   2.272       .  S
In807       O819   2.265       .  S
C808        O814   1.258       .  A
C808        O816   1.261       .  A
C808       C2300   1.479       .  S
O809        C817   1.259       .  A
O810        C817   1.261       .  A
C811        O818   1.259       .  A
C811        O812   1.258       .  A
C811       C2282   1.481       .  S
C813        O815   1.259       .  A
C813        O819   1.264       .  A
C813       C2338   1.473       .  S
C817       C2500   1.474       .  S
In820       O822   2.249       .  S
In820       O823   2.242       .  S
In820       O831   2.243       .  S
In820       O825   2.267       .  S
In820       O827   2.241       .  S
In820       O828   2.256       .  S
In820       O829   2.261       .  S
In820       O832   2.256       .  S
C821        O827   1.259       .  A
C821        O829   1.263       .  A
C821       C2320   1.476       .  S
O822        C830   1.260       .  A
O823        C830   1.256       .  A
C824        O831   1.260       .  A
C824        O825   1.262       .  A
C824       C2266   1.480       .  S
C826        O828   1.260       .  A
C826        O832   1.259       .  A
C826       C2302   1.479       .  S
C830       C2446   1.468       .  S
In833       O835   2.239       .  S
In833       O836   2.256       .  S
In833       O844   2.260       .  S
In833       O838   2.250       .  S
In833       O840   2.261       .  S
In833       O841   2.249       .  S
In833       O842   2.236       .  S
In833       O845   2.262       .  S
C834        O840   1.263       .  A
C834        O842   1.259       .  A
C834       C2228   1.474       .  S
O835        C843   1.258       .  A
O836        C843   1.262       .  A
C837        O844   1.260       .  A
C837        O838   1.257       .  A
C837       C3416   1.475       .  S
C839        O841   1.260       .  A
C839        O845   1.261       .  A
C839       C2246   1.480       .  S
C843       C2210   1.471       .  S
In846       O848   2.244       .  S
In846       O849   2.254       .  S
In846       O857   2.276       .  S
In846       O851   2.258       .  S
In846       O853   2.267       .  S
In846       O854   2.236       .  S
In846       O855   2.261       .  S
In846       O858   2.265       .  S
C847        O853   1.260       .  A
C847        O855   1.258       .  A
C847       C2248   1.481       .  S
O848        C856   1.258       .  A
O849        C856   1.260       .  A
C850        O857   1.260       .  A
C850        O851   1.258       .  A
C850       C3272   1.484       .  S
C852        O854   1.258       .  A
C852        O858   1.264       .  A
C852       C2192   1.475       .  S
C856       C2176   1.470       .  S
In859       O861   2.246       .  S
In859       O862   2.245       .  S
In859       O870   2.269       .  S
In859       O864   2.250       .  S
In859       O866   2.272       .  S
In859       O867   2.237       .  S
In859       O868   2.229       .  S
In859       O871   2.258       .  S
C860        O866   1.262       .  A
C860        O868   1.258       .  A
C860       C2230   1.479       .  S
O861        C869   1.257       .  A
O862        C869   1.259       .  A
C863        O870   1.258       .  A
C863        O864   1.255       .  A
C863       C2120   1.477       .  S
C865        O867   1.261       .  A
C865        O871   1.265       .  A
C865       C2156   1.476       .  S
C869       C2138   1.469       .  S
In872       O874   2.237       .  S
In872       O875   2.256       .  S
In872       O883   2.251       .  S
In872       O877   2.259       .  S
In872       O879   2.269       .  S
In872       O880   2.232       .  S
In872       O881   2.223       .  S
In872       O884   2.261       .  S
C873        O879   1.265       .  A
C873        O881   1.258       .  A
C873       C2104   1.472       .  S
O874        C882   1.258       .  A
O875        C882   1.262       .  A
C876        O883   1.257       .  A
C876        O877   1.260       .  A
C876       C2084   1.476       .  S
C878        O880   1.262       .  A
C878        O884   1.263       .  A
C878       C2194   1.479       .  S
C882       C2140   1.470       .  S
In885       O887   2.243       .  S
In885       O888   2.247       .  S
In885       O896   2.269       .  S
In885       O890   2.260       .  S
In885       O892   2.271       .  S
In885       O893   2.245       .  S
In885       O894   2.248       .  S
In885       O897   2.267       .  S
C886        O892   1.261       .  A
C886        O894   1.259       .  A
C886       C2066   1.483       .  S
O887        C895   1.261       .  A
O888        C895   1.262       .  A
C889        O896   1.259       .  A
C889        O890   1.257       .  A
C889       C3382   1.480       .  S
C891        O893   1.259       .  A
C891        O897   1.261       .  A
C891       C2048   1.479       .  S
C895       C2212   1.473       .  S
In898       O900   2.259       .  S
In898       O901   2.249       .  S
In898       O909   2.258       .  S
In898       O903   2.272       .  S
In898       O905   2.264       .  S
In898       O906   2.254       .  S
In898       O907   2.225       .  S
In898       O910   2.280       .  S
C899        O905   1.266       .  A
C899        O907   1.261       .  A
C899       C2030   1.478       .  S
O900        C908   1.258       .  A
O901        C908   1.260       .  A
C902        O909   1.257       .  A
C902        O903   1.258       .  A
C902       C3148   1.481       .  S
C904        O906   1.258       .  A
C904        O910   1.260       .  A
C904       C2068   1.480       .  S
C908       C2174   1.475       .  S
In911       O913   2.240       .  S
In911       O914   2.239       .  S
In911       O922   2.253       .  S
In911       O916   2.279       .  S
In911       O918   2.274       .  S
In911       O919   2.248       .  S
In911       O920   2.232       .  S
In911       O923   2.252       .  S
C912        O918   1.264       .  A
C912        O920   1.259       .  A
C912       C2158   1.480       .  S
O913        C921   1.258       .  A
O914        C921   1.261       .  A
C915        O922   1.256       .  A
C915        O916   1.260       .  A
C915       C1994   1.481       .  S
C917        O919   1.261       .  A
C917        O923   1.262       .  A
C917       C2050   1.476       .  S
C921       C2012   1.467       .  S
In924       O926   2.238       .  S
In924       O927   2.242       .  S
In924       O935   2.250       .  S
In924       O929   2.257       .  S
In924       O931   2.272       .  S
In924       O932   2.232       .  S
In924       O933   2.229       .  S
In924       O936   2.265       .  S
C925        O931   1.262       .  A
C925        O933   1.258       .  A
C925       C2032   1.478       .  S
O926        C934   1.259       .  A
O927        C934   1.261       .  A
C928        O935   1.258       .  A
C928        O929   1.260       .  A
C928       C1976   1.476       .  S
C930        O932   1.260       .  A
C930        O936   1.263       .  A
C930       C2102   1.479       .  S
C934       C2014   1.468       .  S
In937       O939   2.252       .  S
In937       O940   2.244       .  S
In937       O948   2.257       .  S
In937       O942   2.261       .  S
In937       O944   2.270       .  S
In937       O945   2.257       .  S
In937       O946   2.250       .  S
In937       O949   2.263       .  S
C938        O944   1.261       .  A
C938        O946   1.259       .  A
C938       C1958   1.481       .  S
O939        C947   1.260       .  A
O940        C947   1.261       .  A
C941        O948   1.258       .  A
C941        O942   1.260       .  A
C941       C1904   1.479       .  S
C943        O945   1.260       .  A
C943        O949   1.261       .  A
C943       C1940   1.481       .  S
C947       C1922   1.474       .  S
In950       O952   2.255       .  S
In950       O953   2.245       .  S
In950       O961   2.281       .  S
In950       O955   2.248       .  S
In950       O957   2.258       .  S
In950       O958   2.251       .  S
In950       O959   2.246       .  S
In950       O962   2.271       .  S
C951        O957   1.263       .  A
C951        O959   1.261       .  A
C951       C1886   1.478       .  S
O952        C960   1.261       .  A
O953        C960   1.259       .  A
C954        O961   1.261       .  A
C954        O955   1.256       .  A
C954       C2426   1.479       .  S
C956        O958   1.258       .  A
C956        O962   1.261       .  A
C956       C1960   1.479       .  S
C960       C1868   1.472       .  S
In963       O965   2.248       .  S
In963       O966   2.239       .  S
In963       O974   2.268       .  S
In963       O968   2.254       .  S
In963       O970   2.259       .  S
In963       O971   2.245       .  S
In963       O972   2.248       .  S
In963       O975   2.272       .  S
C964        O970   1.263       .  A
C964        O972   1.261       .  A
C964       C1888   1.480       .  S
O965        C973   1.262       .  A
O966        C973   1.258       .  A
C967        O974   1.260       .  A
C967        O968   1.258       .  A
C967       C3686   1.480       .  S
C969        O971   1.260       .  A
C969        O975   1.263       .  A
C969       C1852   1.484       .  S
C973       C1832   1.471       .  S
In976       O978   2.239       .  S
In976       O979   2.240       .  S
In976       O987   2.260       .  S
In976       O981   2.271       .  S
In976       O983   2.292       .  S
In976       O984   2.255       .  S
In976       O985   2.219       .  S
In976       O988   2.268       .  S
C977        O983   1.265       .  A
C977        O985   1.256       .  A
C977       C1814   1.476       .  S
O978        C986   1.261       .  A
O979        C986   1.261       .  A
C980        O987   1.257       .  A
C980        O981   1.258       .  A
C980       C3670   1.480       .  S
C982        O984   1.260       .  A
C982        O988   1.262       .  A
C982       C1942   1.484       .  S
C986       C1834   1.469       .  S
In989       O991   2.246       .  S
In989       O992   2.253       .  S
In989      O1000   2.275       .  S
In989       O994   2.257       .  S
In989       O996   2.278       .  S
In989       O997   2.258       .  S
In989       O998   2.244       .  S
In989      O1001   2.266       .  S
C990        O996   1.260       .  A
C990        O998   1.256       .  A
C990       C1778   1.479       .  S
O991        C999   1.261       .  A
O992        C999   1.261       .  A
C993       O1000   1.260       .  A
C993        O994   1.257       .  A
C993       C1996   1.481       .  S
C995        O997   1.260       .  A
C995       O1001   1.259       .  A
C995       C1816   1.482       .  S
C999       C1796   1.476       .  S
In1002     O1004   2.245       .  S
In1002     O1005   2.248       .  S
In1002     O1013   2.271       .  S
In1002     O1007   2.255       .  S
In1002     O1009   2.288       .  S
In1002     O1010   2.249       .  S
In1002     O1011   2.230       .  S
In1002     O1014   2.256       .  S
C1003      O1009   1.264       .  A
C1003      O1011   1.256       .  A
C1003      C1850   1.478       .  S
O1004      C1012   1.261       .  A
O1005      C1012   1.261       .  A
C1006      O1013   1.257       .  A
C1006      O1007   1.256       .  A
C1006      C1978   1.478       .  S
C1008      O1010   1.262       .  A
C1008      O1014   1.263       .  A
C1008      C1760   1.479       .  S
C1012      C1798   1.474       .  S
In1015     O1017   2.241       .  S
In1015     O1018   2.249       .  S
In1015     O1026   2.262       .  S
In1015     O1020   2.267       .  S
In1015     O1022   2.246       .  S
In1015     O1023   2.244       .  S
In1015     O1024   2.261       .  S
In1015     O1027   2.266       .  S
C1016      O1022   1.260       .  A
C1016      O1024   1.262       .  A
C1016      C1780   1.479       .  S
O1017      C1025   1.258       .  A
O1018      C1025   1.260       .  A
C1019      O1026   1.259       .  A
C1019      O1020   1.260       .  A
C1019      C1724   1.483       .  S
C1021      O1023   1.258       .  A
C1021      O1027   1.261       .  A
C1021      C1742   1.475       .  S
C1025      C1924   1.468       .  S
In1028     O1030   2.240       .  S
In1028     O1031   2.251       .  S
In1028     O1039   2.268       .  S
In1028     O1033   2.248       .  S
In1028     O1035   2.260       .  S
In1028     O1036   2.243       .  S
In1028     O1037   2.235       .  S
In1028     O1040   2.263       .  S
C1029      O1035   1.262       .  A
C1029      O1037   1.261       .  A
C1029      C1744   1.477       .  S
O1030      C1038   1.261       .  A
O1031      C1038   1.261       .  A
C1032      O1039   1.260       .  A
C1032      O1033   1.257       .  A
C1032      C2264   1.476       .  S
C1034      O1036   1.259       .  A
C1034      O1040   1.261       .  A
C1034      C1762   1.477       .  S
C1038      C1870   1.474       .  S
In1041     O1043   2.253       .  S
In1041     O1044   2.247       .  S
In1041     O1052   2.247       .  S
In1041     O1046   2.264       .  S
In1041     O1048   2.258       .  S
In1041     O1049   2.226       .  S
In1041     O1050   2.244       .  S
In1041     O1053   2.260       .  S
C1042      O1048   1.261       .  A
C1042      O1050   1.259       .  A
C1042      C1670   1.475       .  S
O1043      C1051   1.259       .  A
O1044      C1051   1.257       .  A
C1045      O1052   1.257       .  A
C1045      O1046   1.261       .  A
C1045      C2122   1.476       .  S
C1047      O1049   1.260       .  A
C1047      O1053   1.264       .  A
C1047      C1706   1.475       .  S
C1051      C1688   1.471       .  S
In1054     O1056   2.247       .  S
In1054     O1057   2.243       .  S
In1054     O1065   2.262       .  S
In1054     O1059   2.250       .  S
In1054     O1061   2.266       .  S
In1054     O1062   2.239       .  S
In1054     O1063   2.242       .  S
In1054     O1066   2.262       .  S
C1055      O1061   1.261       .  A
C1055      O1063   1.259       .  A
C1055      C1652   1.479       .  S
O1056      C1064   1.259       .  A
O1057      C1064   1.260       .  A
C1058      O1065   1.260       .  A
C1058      O1059   1.260       .  A
C1058      C2086   1.479       .  S
C1060      O1062   1.258       .  A
C1060      O1066   1.263       .  A
C1060      C1636   1.473       .  S
C1064      C1690   1.471       .  S
In1067     O1069   2.243       .  S
In1067     O1070   2.253       .  S
In1067     O1078   2.258       .  S
In1067     O1072   2.257       .  S
In1067     O1074   2.263       .  S
In1067     O1075   2.250       .  S
In1067     O1076   2.247       .  S
In1067     O1079   2.262       .  S
C1068      O1074   1.261       .  A
C1068      O1076   1.260       .  A
C1068      C1616   1.480       .  S
O1069      C1077   1.262       .  A
O1070      C1077   1.261       .  A
C1071      O1078   1.258       .  A
C1071      O1072   1.258       .  A
C1071      C3760   1.476       .  S
C1073      O1075   1.260       .  A
C1073      O1079   1.260       .  A
C1073      C1672   1.478       .  S
C1077      C1598   1.476       .  S
In1080     O1082   2.262       .  S
In1080     O1083   2.242       .  S
In1080     O1091   2.251       .  S
In1080     O1085   2.265       .  S
In1080     O1087   2.264       .  S
In1080     O1088   2.230       .  S
In1080     O1089   2.237       .  S
In1080     O1092   2.266       .  S
C1081      O1087   1.261       .  A
C1081      O1089   1.260       .  A
C1081      C1634   1.478       .  S
O1082      C1090   1.262       .  A
O1083      C1090   1.258       .  A
C1084      O1091   1.256       .  A
C1084      O1085   1.259       .  A
C1084      C3724   1.475       .  S
C1086      O1088   1.260       .  A
C1086      O1092   1.262       .  A
C1086      C1582   1.478       .  S
C1090      C1600   1.474       .  S
In1093     O1095   2.264       .  S
In1093     O1096   2.240       .  S
In1093     O1104   2.261       .  S
In1093     O1098   2.263       .  S
In1093     O1100   2.236       .  S
In1093     O1101   2.238       .  S
In1093     O1102   2.272       .  S
In1093     O1105   2.267       .  S
C1094      O1100   1.259       .  A
C1094      O1102   1.265       .  A
C1094      C1618   1.478       .  S
O1095      C1103   1.259       .  A
O1096      C1103   1.258       .  A
C1097      O1104   1.258       .  A
C1097      O1098   1.258       .  A
C1097      C1526   1.479       .  S
C1099      O1101   1.257       .  A
C1099      O1105   1.263       .  A
C1099      C1562   1.474       .  S
C1103      C1544   1.475       .  S
In1106     O1108   2.257       .  S
In1106     O1109   2.236       .  S
In1106     O1117   2.268       .  S
In1106     O1111   2.253       .  S
In1106     O1113   2.275       .  S
In1106     O1114   2.242       .  S
In1106     O1115   2.234       .  S
In1106     O1118   2.256       .  S
C1107      O1113   1.262       .  A
C1107      O1115   1.257       .  A
C1107      C1564   1.477       .  S
O1108      C1116   1.261       .  A
O1109      C1116   1.260       .  A
C1110      O1117   1.260       .  A
C1110      O1111   1.257       .  A
C1110      C2480   1.477       .  S
C1112      O1114   1.261       .  A
C1112      O1118   1.263       .  A
C1112      C1580   1.476       .  S
C1116      C1508   1.474       .  S
In1119     O1121   2.252       .  S
In1119     O1122   2.240       .  S
In1119     O1130   2.258       .  S
In1119     O1124   2.252       .  S
In1119     O1126   2.262       .  S
In1119     O1127   2.238       .  S
In1119     O1128   2.235       .  S
In1119     O1131   2.262       .  S
C1120      O1126   1.261       .  A
C1120      O1128   1.259       .  A
C1120      C1492   1.476       .  S
O1121      C1129   1.261       .  A
O1122      C1129   1.261       .  A
C1123      O1130   1.259       .  A
C1123      O1124   1.257       .  A
C1123      C1472   1.476       .  S
C1125      O1127   1.258       .  A
C1125      O1131   1.260       .  A
C1125      C1708   1.475       .  S
C1129      C1546   1.474       .  S
In1132     O1134   2.248       .  S
In1132     O1135   2.262       .  S
In1132     O1143   2.266       .  S
In1132     O1137   2.278       .  S
In1132     O1139   2.248       .  S
In1132     O1140   2.245       .  S
In1132     O1141   2.266       .  S
In1132     O1144   2.264       .  S
C1133      O1139   1.260       .  A
C1133      O1141   1.261       .  A
C1133      C1654   1.481       .  S
O1134      C1142   1.258       .  A
O1135      C1142   1.262       .  A
C1136      O1143   1.258       .  A
C1136      O1137   1.260       .  A
C1136      C2284   1.485       .  S
C1138      O1140   1.259       .  A
C1138      O1144   1.261       .  A
C1138      C1490   1.475       .  S
C1142      C1510   1.476       .  S
In1145     O1147   2.237       .  S
In1145     O1148   2.241       .  S
In1145     O1156   2.254       .  S
In1145     O1150   2.288       .  S
In1145     O1152   2.275       .  S
In1145     O1153   2.236       .  S
In1145     O1154   2.246       .  S
In1145     O1157   2.271       .  S
C1146      O1152   1.262       .  A
C1146      O1154   1.257       .  A
C1146      C1418   1.481       .  S
O1147      C1155   1.260       .  A
O1148      C1155   1.261       .  A
C1149      O1156   1.255       .  A
C1149      O1150   1.259       .  A
C1149      C2662   1.482       .  S
C1151      O1153   1.259       .  A
C1151      O1157   1.264       .  A
C1151      C1454   1.476       .  S
C1155      C1436   1.468       .  S
In1158     O1160   2.243       .  S
In1158     O1161   2.249       .  S
In1158     O1169   2.245       .  S
In1158     O1163   2.281       .  S
In1158     O1165   2.266       .  S
In1158     O1166   2.232       .  S
In1158     O1167   2.232       .  S
In1158     O1170   2.263       .  S
C1159      O1165   1.263       .  A
C1159      O1167   1.259       .  A
C1159      C1400   1.477       .  S
O1160      C1168   1.257       .  A
O1161      C1168   1.261       .  A
C1162      O1169   1.256       .  A
C1162      O1163   1.259       .  A
C1162      C2698   1.481       .  S
C1164      O1166   1.260       .  A
C1164      O1170   1.263       .  A
C1164      C1384   1.474       .  S
C1168      C1438   1.470       .  S
In1171     O1173   2.253       .  S
In1171     O1174   2.245       .  S
In1171     O1182   2.264       .  S
In1171     O1176   2.257       .  S
In1171     O1178   2.268       .  S
In1171     O1179   2.242       .  S
In1171     O1180   2.230       .  S
In1171     O1183   2.266       .  S
C1172      O1178   1.262       .  A
C1172      O1180   1.259       .  A
C1172      C1382   1.477       .  S
O1173      C1181   1.260       .  A
O1174      C1181   1.257       .  A
C1175      O1182   1.259       .  A
C1175      O1176   1.258       .  A
C1175      C4534   1.480       .  S
C1177      O1179   1.259       .  A
C1177      O1183   1.264       .  A
C1177      C1364   1.478       .  S
C1181      C1346   1.471       .  S
In1184     O1186   2.243       .  S
In1184     O1187   2.256       .  S
In1184     O1195   2.252       .  S
In1184     O1189   2.265       .  S
In1184     O1191   2.256       .  S
In1184     O1192   2.266       .  S
In1184     O1193   2.233       .  S
In1184     O1196   2.262       .  S
C1185      O1191   1.265       .  A
C1185      O1193   1.262       .  A
C1185      C1328   1.477       .  S
O1186      C1194   1.259       .  A
O1187      C1194   1.257       .  A
C1188      O1195   1.259       .  A
C1188      O1189   1.260       .  A
C1188      C4498   1.479       .  S
C1190      O1192   1.259       .  A
C1190      O1196   1.258       .  A
C1190      C1420   1.480       .  S
C1194      C1348   1.472       .  S
In1197     O1199   2.256       .  S
In1197     O1200   2.240       .  S
In1197     O1208   2.259       .  S
In1197     O1202   2.255       .  S
In1197     O1204   2.250       .  S
In1197     O1205   2.238       .  S
In1197     O1206   2.250       .  S
In1197     O1209   2.265       .  S
C1198      O1204   1.262       .  A
C1198      O1206   1.260       .  A
C1198      C1310   1.474       .  S
O1199      C1207   1.261       .  A
O1200      C1207   1.257       .  A
C1201      O1208   1.261       .  A
C1201      O1202   1.258       .  A
C1201      C1528   1.479       .  S
C1203      O1205   1.260       .  A
C1203      O1209   1.264       .  A
C1203      C1366   1.480       .  S
C1207      C1292   1.471       .  S
In1210     O1212   2.245       .  S
In1210     O1213   2.249       .  S
In1210     O1221   2.242       .  S
In1210     O1215   2.270       .  S
In1210     O1217   2.244       .  S
In1210     O1218   2.241       .  S
In1210     O1219   2.273       .  S
In1210     O1222   2.258       .  S
C1211      O1217   1.257       .  A
C1211      O1219   1.260       .  A
C1211      C1330   1.478       .  S
O1212      C1220   1.259       .  A
O1213      C1220   1.261       .  A
C1214      O1221   1.257       .  A
C1214      O1215   1.262       .  A
C1214      C1906   1.477       .  S
C1216      O1218   1.262       .  A
C1216      O1222   1.262       .  A
C1216      C1312   1.477       .  S
C1220      C1274   1.472       .  S
In1223     O1225   2.248       .  S
In1223     O1226   2.245       .  S
In1223     O1234   2.260       .  S
In1223     O1228   2.257       .  S
In1223     O1230   2.257       .  S
In1223     O1231   2.266       .  S
In1223     O1232   2.239       .  S
In1223     O1235   2.249       .  S
C1224      O1230   1.263       .  A
C1224      O1232   1.258       .  A
C1224      C1402   1.473       .  S
O1225      C1233   1.262       .  A
O1226      C1233   1.260       .  A
C1227      O1234   1.258       .  A
C1227      O1228   1.256       .  A
C1227      C1474   1.475       .  S
C1229      O1231   1.261       .  A
C1229      O1235   1.260       .  A
C1229      C1256   1.480       .  S
C1233      C1294   1.473       .  S
In1236     O1238   2.250       .  S
In1236     O1239   2.256       .  S
In1236     O1247   2.266       .  S
In1236     O1241   2.271       .  S
In1236     O1243   2.259       .  S
In1236     O1244   2.252       .  S
In1236     O1245   2.257       .  S
In1236     O1248   2.257       .  S
C1237      O1243   1.259       .  A
C1237      O1245   1.259       .  A
C1237      C1258   1.478       .  S
O1238      C1246   1.257       .  A
O1239      C1246   1.261       .  A
C1240      O1247   1.258       .  A
C1240      O1241   1.259       .  A
C1240      C1726   1.483       .  S
C1242      O1244   1.261       .  A
C1242      O1248   1.263       .  A
C1242      C1456   1.479       .  S
C1246      C1276   1.474       .  S
C1249      C1257   1.492       .  S
C1249      C1250   1.405       .  A
C1249      C1254   1.408       .  A
C1250      C1251   1.402       .  A
C1250      H1259   1.083       .  S
C1251      C1252   1.409   1_545  A
C1251      H1260   1.081   1_545  S
C1252      C1255   1.493       .  S
C1252      C1253   1.404   1_565  A
C1253      C1254   1.399       .  A
C1253      H1261   1.083   1_545  S
C1254      H1262   1.081       .  S
C1255      H1263   1.088       .  S
C1255      C1256   1.348       .  D
C1256      H1264   1.084       .  S
C1257      H1265   1.087       .  S
C1257      C1258   1.348       .  D
C1258      H1266   1.084       .  S
C1267      C1275   1.491       .  S
C1267      C1268   1.405       .  A
C1267      C1272   1.411       .  A
C1268      C1269   1.397       .  A
C1268      H1277   1.083       .  S
C1269      C1270   1.406       .  A
C1269      H1278   1.081       .  S
C1270      C1273   1.484       .  S
C1270      C1271   1.402       .  A
C1271      C1272   1.399       .  A
C1271      H1279   1.083       .  S
C1272      H1280   1.078       .  S
C1273      H1281   1.087       .  S
C1273      C1274   1.345       .  D
C1274      H1282   1.084       .  S
C1275      H1283   1.087       .  S
C1275      C1276   1.346       .  D
C1276      H1284   1.081       .  S
C1285      C1293   1.486       .  S
C1285      C1286   1.402       .  A
C1285      C1290   1.407       .  A
C1286      C1287   1.397       .  A
C1286      H1295   1.083       .  S
C1287      C1288   1.410       .  A
C1287      H1296   1.079       .  S
C1288      C1291   1.491       .  S
C1288      C1289   1.404       .  A
C1289      C1290   1.399       .  A
C1289      H1297   1.083       .  S
C1290      H1298   1.081       .  S
C1291      H1299   1.087       .  S
C1291      C1292   1.345       .  D
C1292      H1300   1.082       .  S
C1293      H1301   1.088       .  S
C1293      C1294   1.344       .  D
C1294      H1302   1.085       .  S
C1303      C1311   1.483       .  S
C1303      C1304   1.401       .  A
C1303      C1308   1.407       .  A
C1304      C1305   1.397   1_545  A
C1304      H1313   1.083       .  S
C1305      C1306   1.407       .  A
C1305      H1314   1.082       .  S
C1306      C1309   1.486       .  S
C1306      C1307   1.405       .  A
C1307      C1308   1.402   1_565  A
C1307      H1315   1.083       .  S
C1308      H1316   1.082       .  S
C1309      H1317   1.087       .  S
C1309      C1310   1.345       .  D
C1310      H1318   1.086       .  S
C1311      H1319   1.088       .  S
C1311      C1312   1.344       .  D
C1312      H1320   1.086       .  S
C1321      C1329   1.488       .  S
C1321      C1322   1.405       .  A
C1321      C1326   1.407       .  A
C1322      C1323   1.400       .  A
C1322      H1331   1.083       .  S
C1323      C1324   1.407       .  A
C1323      H1332   1.082       .  S
C1324      C1327   1.488       .  S
C1324      C1325   1.404       .  A
C1325      C1326   1.399       .  A
C1325      H1333   1.082       .  S
C1326      H1334   1.082       .  S
C1327      H1335   1.087       .  S
C1327      C1328   1.347       .  D
C1328      H1336   1.085       .  S
C1329      H1337   1.087       .  S
C1329      C1330   1.348       .  D
C1330      H1338   1.085       .  S
C1339      C1347   1.483       .  S
C1339      C1340   1.402       .  A
C1339      C1344   1.408       .  A
C1340      C1341   1.395   1_545  A
C1340      H1349   1.083       .  S
C1341      C1342   1.407       .  A
C1341      H1350   1.082       .  S
C1342      C1345   1.485       .  S
C1342      C1343   1.403       .  A
C1343      C1344   1.399   1_565  A
C1343      H1351   1.082       .  S
C1344      H1352   1.081       .  S
C1345      H1353   1.086       .  S
C1345      C1346   1.344       .  D
C1346      H1354   1.084       .  S
C1347      H1355   1.088       .  S
C1347      C1348   1.343       .  D
C1348      H1356   1.085       .  S
C1357      C1365   1.494       .  S
C1357      C1358   1.405       .  A
C1357      C1362   1.409       .  A
C1358      C1359   1.399       .  A
C1358      H1367   1.083       .  S
C1359      C1360   1.408       .  A
C1359      H1368   1.080       .  S
C1360      C1363   1.494       .  S
C1360      C1361   1.405       .  A
C1361      C1362   1.402       .  A
C1361      H1369   1.082       .  S
C1362      H1370   1.080       .  S
C1363      H1371   1.086       .  S
C1363      C1364   1.347       .  D
C1364      H1372   1.083       .  S
C1365      H1373   1.087       .  S
C1365      C1366   1.350       .  D
C1366      H1374   1.083       .  S
C1375      C1383   1.493       .  S
C1375      C1376   1.406       .  A
C1375      C1380   1.409       .  A
C1376      C1377   1.402       .  A
C1376      H1385   1.083       .  S
C1377      C1378   1.407       .  A
C1377      H1386   1.082       .  S
C1378      C1381   1.485       .  S
C1378      C1379   1.402       .  A
C1379      C1380   1.396       .  A
C1379      H1387   1.083       .  S
C1380      H1388   1.081       .  S
C1381      H1389   1.087       .  S
C1381      C1382   1.346       .  D
C1382      H1390   1.085       .  S
C1383      H1391   1.087       .  S
C1383      C1384   1.347       .  D
C1384      H1392   1.083       .  S
C1393      C1401   1.486       .  S
C1393      C1394   1.403       .  A
C1393      C1398   1.407       .  A
C1394      C1395   1.400       .  A
C1394      H1403   1.083       .  S
C1395      C1396   1.407       .  A
C1395      H1404   1.082       .  S
C1396      C1399   1.484       .  S
C1396      C1397   1.403       .  A
C1397      C1398   1.397       .  A
C1397      H1405   1.083       .  S
C1398      H1406   1.083       .  S
C1399      H1407   1.087       .  S
C1399      C1400   1.346       .  D
C1400      H1408   1.085       .  S
C1401      H1409   1.087       .  S
C1401      C1402   1.343       .  D
C1402      H1410   1.086       .  S
C1411      C1419   1.493       .  S
C1411      C1412   1.406       .  A
C1411      C1416   1.408       .  A
C1412      C1413   1.402       .  A
C1412      H1421   1.083       .  S
C1413      C1414   1.406       .  A
C1413      H1422   1.082       .  S
C1414      C1417   1.489       .  S
C1414      C1415   1.404       .  A
C1415      C1416   1.401       .  A
C1415      H1423   1.083       .  S
C1416      H1424   1.081       .  S
C1417      H1425   1.087       .  S
C1417      C1418   1.348       .  D
C1418      H1426   1.085       .  S
C1419      H1427   1.087       .  S
C1419      C1420   1.348       .  D
C1420      H1428   1.084       .  S
C1429      C1437   1.487       .  S
C1429      C1430   1.402       .  A
C1429      C1434   1.410       .  A
C1430      C1431   1.394   1_565  A
C1430      H1439   1.083       .  S
C1431      C1432   1.407       .  A
C1431      H1440   1.081       .  S
C1432      C1435   1.483       .  S
C1432      C1433   1.402       .  A
C1433      C1434   1.398   1_545  A
C1433      H1441   1.083       .  S
C1434      H1442   1.079       .  S
C1435      H1443   1.088       .  S
C1435      C1436   1.344       .  D
C1436      H1444   1.084       .  S
C1437      H1445   1.087       .  S
C1437      C1438   1.343       .  D
C1438      H1446   1.082       .  S
C1447      C1455   1.490       .  S
C1447      C1448   1.404       .  A
C1447      C1452   1.409       .  A
C1448      C1449   1.399       .  A
C1448      H1457   1.083       .  S
C1449      C1450   1.406       .  A
C1449      H1458   1.083       .  S
C1450      C1453   1.488       .  S
C1450      C1451   1.403       .  A
C1451      C1452   1.403       .  A
C1451      H1459   1.083       .  S
C1452      H1460   1.082       .  S
C1453      H1461   1.087       .  S
C1453      C1454   1.345       .  D
C1454      H1462   1.086       .  S
C1455      H1463   1.087       .  S
C1455      C1456   1.347       .  D
C1456      H1464   1.085       .  S
C1465      C1473   1.488       .  S
C1465      C1466   1.403       .  A
C1465      C1470   1.407       .  A
C1466      C1467   1.399       .  A
C1466      H1475   1.083       .  S
C1467      C1468   1.409       .  A
C1467      H1476   1.080       .  S
C1468      C1471   1.491       .  S
C1468      C1469   1.404       .  A
C1469      C1470   1.399       .  A
C1469      H1477   1.083       .  S
C1470      H1478   1.081       .  S
C1471      H1479   1.087       .  S
C1471      C1472   1.346       .  D
C1472      H1480   1.083       .  S
C1473      H1481   1.087       .  S
C1473      C1474   1.345       .  D
C1474      H1482   1.085       .  S
C1483      C1491   1.484       .  S
C1483      C1484   1.402       .  A
C1483      C1488   1.407       .  A
C1484      C1485   1.396   1_655  A
C1484      H1493   1.083       .  S
C1485      C1486   1.407       .  A
C1485      H1494   1.081       .  S
C1486      C1489   1.489       .  S
C1486      C1487   1.405       .  A
C1487      C1488   1.402   1_455  A
C1487      H1495   1.082       .  S
C1488      H1496   1.082       .  S
C1489      H1497   1.087       .  S
C1489      C1490   1.346       .  D
C1490      H1498   1.084       .  S
C1491      H1499   1.087       .  S
C1491      C1492   1.345       .  D
C1492      H1500   1.085       .  S
C1501      C1509   1.493       .  S
C1501      C1502   1.405       .  A
C1501      C1506   1.410       .  A
C1502      C1503   1.399       .  A
C1502      H1511   1.083       .  S
C1503      C1504   1.406       .  A
C1503      H1512   1.081       .  S
C1504      C1507   1.487       .  S
C1504      C1505   1.404       .  A
C1505      C1506   1.399       .  A
C1505      H1513   1.083       .  S
C1506      H1514   1.080       .  S
C1507      H1515   1.087       .  S
C1507      C1508   1.347       .  D
C1508      H1516   1.084       .  S
C1509      H1517   1.087       .  S
C1509      C1510   1.346       .  D
C1510      H1518   1.082       .  S
C1519      C1527   1.494       .  S
C1519      C1520   1.405       .  A
C1519      C1524   1.409       .  A
C1520      C1521   1.400       .  A
C1520      H1529   1.082       .  S
C1521      C1522   1.408       .  A
C1521      H1530   1.081       .  S
C1522      C1525   1.493       .  S
C1522      C1523   1.405       .  A
C1523      C1524   1.401       .  A
C1523      H1531   1.082       .  S
C1524      H1532   1.081       .  S
C1525      H1533   1.087       .  S
C1525      C1526   1.348       .  D
C1526      H1534   1.084       .  S
C1527      H1535   1.087       .  S
C1527      C1528   1.348       .  D
C1528      H1536   1.083       .  S
C1537      C1545   1.487       .  S
C1537      C1538   1.404       .  A
C1537      C1542   1.406       .  A
C1538      C1539   1.399       .  A
C1538      H1547   1.083       .  S
C1539      C1540   1.408       .  A
C1539      H1548   1.080       .  S
C1540      C1543   1.489       .  S
C1540      C1541   1.405       .  A
C1541      C1542   1.397       .  A
C1541      H1549   1.083       .  S
C1542      H1550   1.081       .  S
C1543      H1551   1.087       .  S
C1543      C1544   1.347       .  D
C1544      H1552   1.083       .  S
C1545      H1553   1.087       .  S
C1545      C1546   1.346       .  D
C1546      H1554   1.084       .  S
C1555      C1563   1.483       .  S
C1555      C1556   1.402       .  A
C1555      C1560   1.406       .  A
C1556      C1557   1.397   1_455  A
C1556      H1565   1.084       .  S
C1557      C1558   1.408       .  A
C1557      H1566   1.081       .  S
C1558      C1561   1.489       .  S
C1558      C1559   1.405       .  A
C1559      C1560   1.402   1_655  A
C1559      H1567   1.083       .  S
C1560      H1568   1.083       .  S
C1561      H1569   1.087       .  S
C1561      C1562   1.345       .  D
C1562      H1570   1.085       .  S
C1563      H1571   1.087       .  S
C1563      C1564   1.347       .  D
C1564      H1572   1.085       .  S
C1573      C1581   1.487       .  S
C1573      C1574   1.404       .  A
C1573      C1578   1.407       .  A
C1574      C1575   1.397       .  A
C1574      H1583   1.083       .  S
C1575      C1576   1.407       .  A
C1575      H1584   1.081       .  S
C1576      C1579   1.490       .  S
C1576      C1577   1.406       .  A
C1577      C1578   1.402       .  A
C1577      H1585   1.083       .  S
C1578      H1586   1.081       .  S
C1579      H1587   1.088       .  S
C1579      C1580   1.349       .  D
C1580      H1588   1.084       .  S
C1581      H1589   1.088       .  S
C1581      C1582   1.347       .  D
C1582      H1590   1.085       .  S
C1591      C1599   1.489       .  S
C1591      C1592   1.403       .  A
C1591      C1596   1.408       .  A
C1592      C1593   1.399   1_455  A
C1592      H1601   1.083       .  S
C1593      C1594   1.408       .  A
C1593      H1602   1.080       .  S
C1594      C1597   1.490       .  S
C1594      C1595   1.404       .  A
C1595      C1596   1.399   1_655  A
C1595      H1603   1.083       .  S
C1596      H1604   1.081       .  S
C1597      H1605   1.087       .  S
C1597      C1598   1.347       .  D
C1598      H1606   1.083       .  S
C1599      H1607   1.087       .  S
C1599      C1600   1.345       .  D
C1600      H1608   1.085       .  S
C1609      C1617   1.493       .  S
C1609      C1610   1.405       .  A
C1609      C1614   1.407       .  A
C1610      C1611   1.404       .  A
C1610      H1619   1.083       .  S
C1611      C1612   1.410       .  A
C1611      H1620   1.080       .  S
C1612      C1615   1.495       .  S
C1612      C1613   1.405       .  A
C1613      C1614   1.398       .  A
C1613      H1621   1.083       .  S
C1614      H1622   1.082       .  S
C1615      H1623   1.087       .  S
C1615      C1616   1.349       .  D
C1616      H1624   1.083       .  S
C1617      H1625   1.088       .  S
C1617      C1618   1.347       .  D
C1618      H1626   1.086       .  S
C1627      C1635   1.487       .  S
C1627      C1628   1.404       .  A
C1627      C1632   1.406       .  A
C1628      C1629   1.402       .  A
C1628      H1637   1.083       .  S
C1629      C1630   1.409       .  A
C1629      H1638   1.080       .  S
C1630      C1633   1.490       .  S
C1630      C1631   1.404       .  A
C1631      C1632   1.396       .  A
C1631      H1639   1.083       .  S
C1632      H1640   1.082       .  S
C1633      H1641   1.088       .  S
C1633      C1634   1.347       .  D
C1634      H1642   1.084       .  S
C1635      H1643   1.087       .  S
C1635      C1636   1.345       .  D
C1636      H1644   1.085       .  S
C1645      C1653   1.493       .  S
C1645      C1646   1.405       .  A
C1645      C1650   1.407       .  A
C1646      C1647   1.400       .  A
C1646      H1655   1.083       .  S
C1647      C1648   1.408       .  A
C1647      H1656   1.080       .  S
C1648      C1651   1.493       .  S
C1648      C1649   1.406       .  A
C1649      C1650   1.401       .  A
C1649      H1657   1.083       .  S
C1650      H1658   1.081       .  S
C1651      H1659   1.086       .  S
C1651      C1652   1.350       .  D
C1652      H1660   1.082       .  S
C1653      H1661   1.086       .  S
C1653      C1654   1.349       .  D
C1654      H1662   1.083       .  S
C1663      C1671   1.489       .  S
C1663      C1664   1.403       .  A
C1663      C1668   1.408       .  A
C1664      C1665   1.398       .  A
C1664      H1673   1.082       .  S
C1665      C1666   1.407       .  A
C1665      H1674   1.082       .  S
C1666      C1669   1.489       .  S
C1666      C1667   1.404       .  A
C1667      C1668   1.402       .  A
C1667      H1675   1.083       .  S
C1668      H1676   1.082       .  S
C1669      H1677   1.087       .  S
C1669      C1670   1.346       .  D
C1670      H1678   1.085       .  S
C1671      H1679   1.088       .  S
C1671      C1672   1.346       .  D
C1672      H1680   1.085       .  S
C1681      C1689   1.486       .  S
C1681      C1682   1.403       .  A
C1681      C1686   1.408       .  A
C1682      C1683   1.397   1_455  A
C1682      H1691   1.083       .  S
C1683      C1684   1.407       .  A
C1683      H1692   1.081       .  S
C1684      C1687   1.484       .  S
C1684      C1685   1.403       .  A
C1685      C1686   1.398   1_655  A
C1685      H1693   1.083       .  S
C1686      H1694   1.081       .  S
C1687      H1695   1.087       .  S
C1687      C1688   1.343       .  D
C1688      H1696   1.085       .  S
C1689      H1697   1.087       .  S
C1689      C1690   1.345       .  D
C1690      H1698   1.083       .  S
C1699      C1707   1.488       .  S
C1699      C1700   1.405       .  A
C1699      C1704   1.408       .  A
C1700      C1701   1.398       .  A
C1700      H1709   1.083       .  S
C1701      C1702   1.406       .  A
C1701      H1710   1.082       .  S
C1702      C1705   1.484       .  S
C1702      C1703   1.403       .  A
C1703      C1704   1.398       .  A
C1703      H1711   1.083       .  S
C1704      H1712   1.080       .  S
C1705      H1713   1.088       .  S
C1705      C1706   1.346       .  D
C1706      H1714   1.085       .  S
C1707      H1715   1.087       .  S
C1707      C1708   1.347       .  D
C1708      H1716   1.083       .  S
C1717      C1725   1.495       .  S
C1717      C1718   1.406       .  A
C1717      C1722   1.409       .  A
C1718      C1719   1.402       .  A
C1718      H1727   1.083       .  S
C1719      C1720   1.408       .  A
C1719      H1728   1.082       .  S
C1720      C1723   1.494       .  S
C1720      C1721   1.405       .  A
C1721      C1722   1.403       .  A
C1721      H1729   1.082       .  S
C1722      H1730   1.081       .  S
C1723      H1731   1.087       .  S
C1723      C1724   1.348       .  D
C1724      H1732   1.085       .  S
C1725      H1733   1.088       .  S
C1725      C1726   1.349       .  D
C1726      H1734   1.085       .  S
C1735      C1743   1.486       .  S
C1735      C1736   1.402       .  A
C1735      C1740   1.408       .  A
C1736      C1737   1.396       .  A
C1736      H1745   1.083       .  S
C1737      C1738   1.408   1_455  A
C1737      H1746   1.080   1_455  S
C1738      C1741   1.492       .  S
C1738      C1739   1.406   1_655  A
C1739      C1740   1.403       .  A
C1739      H1747   1.083   1_455  S
C1740      H1748   1.082       .  S
C1741      H1749   1.087       .  S
C1741      C1742   1.347       .  D
C1742      H1750   1.084       .  S
C1743      H1751   1.087       .  S
C1743      C1744   1.345       .  D
C1744      H1752   1.085       .  S
C1753      C1761   1.487       .  S
C1753      C1754   1.403       .  A
C1753      C1758   1.407       .  A
C1754      C1755   1.399       .  A
C1754      H1763   1.083       .  S
C1755      C1756   1.407       .  A
C1755      H1764   1.081       .  S
C1756      C1759   1.490       .  S
C1756      C1757   1.405       .  A
C1757      C1758   1.401       .  A
C1757      H1765   1.082       .  S
C1758      H1766   1.082       .  S
C1759      H1767   1.087       .  S
C1759      C1760   1.348       .  D
C1760      H1768   1.084       .  S
C1761      H1769   1.088       .  S
C1761      C1762   1.346       .  D
C1762      H1770   1.085       .  S
C1771      C1779   1.490       .  S
C1771      C1772   1.405       .  A
C1771      C1776   1.407       .  A
C1772      C1773   1.400       .  A
C1772      H1781   1.083       .  S
C1773      C1774   1.406       .  A
C1773      H1782   1.082       .  S
C1774      C1777   1.488       .  S
C1774      C1775   1.405       .  A
C1775      C1776   1.400       .  A
C1775      H1783   1.082       .  S
C1776      H1784   1.083       .  S
C1777      H1785   1.087       .  S
C1777      C1778   1.348       .  D
C1778      H1786   1.085       .  S
C1779      H1787   1.087       .  S
C1779      C1780   1.348       .  D
C1780      H1788   1.085       .  S
C1789      C1797   1.490       .  S
C1789      C1790   1.405       .  A
C1789      C1794   1.408       .  A
C1790      C1791   1.399   1_455  A
C1790      H1799   1.083       .  S
C1791      C1792   1.408       .  A
C1791      H1800   1.081       .  S
C1792      C1795   1.489       .  S
C1792      C1793   1.403       .  A
C1793      C1794   1.398   1_655  A
C1793      H1801   1.082       .  S
C1794      H1802   1.080       .  S
C1795      H1803   1.087       .  S
C1795      C1796   1.346       .  D
C1796      H1804   1.084       .  S
C1797      H1805   1.087       .  S
C1797      C1798   1.347       .  D
C1798      H1806   1.083       .  S
C1807      C1815   1.495       .  S
C1807      C1808   1.402       .  A
C1807      C1812   1.411       .  A
C1808      C1809   1.395       .  A
C1808      H1817   1.083       .  S
C1809      C1810   1.409       .  A
C1809      H1818   1.080       .  S
C1810      C1813   1.498       .  S
C1810      C1811   1.406       .  A
C1811      C1812   1.406       .  A
C1811      H1819   1.083       .  S
C1812      H1820   1.081       .  S
C1813      H1821   1.087       .  S
C1813      C1814   1.347       .  D
C1814      H1822   1.084       .  S
C1815      H1823   1.088       .  S
C1815      C1816   1.348       .  D
C1816      H1824   1.083       .  S
C1825      C1833   1.486       .  S
C1825      C1826   1.403       .  A
C1825      C1830   1.408       .  A
C1826      C1827   1.398   1_655  A
C1826      H1835   1.083       .  S
C1827      C1828   1.409       .  A
C1827      H1836   1.080       .  S
C1828      C1831   1.486       .  S
C1828      C1829   1.401       .  A
C1829      C1830   1.395   1_455  A
C1829      H1837   1.083       .  S
C1830      H1838   1.079       .  S
C1831      H1839   1.087       .  S
C1831      C1832   1.343       .  D
C1832      H1840   1.083       .  S
C1833      H1841   1.087       .  S
C1833      C1834   1.345       .  D
C1834      H1842   1.082       .  S
C1843      C1851   1.494       .  S
C1843      C1844   1.404       .  A
C1843      C1848   1.410       .  A
C1844      C1845   1.397       .  A
C1844      H1853   1.083       .  S
C1845      C1846   1.407       .  A
C1845      H1854   1.082       .  S
C1846      C1849   1.496       .  S
C1846      C1847   1.406       .  A
C1847      C1848   1.406       .  A
C1847      H1855   1.083       .  S
C1848      H1856   1.081       .  S
C1849      H1857   1.087       .  S
C1849      C1850   1.347       .  D
C1850      H1858   1.084       .  S
C1851      H1859   1.088       .  S
C1851      C1852   1.349       .  D
C1852      H1860   1.084       .  S
C1861      C1869   1.485       .  S
C1861      C1862   1.403       .  A
C1861      C1866   1.408       .  A
C1862      C1863   1.396       .  A
C1862      H1871   1.083       .  S
C1863      C1864   1.406       .  A
C1863      H1872   1.082       .  S
C1864      C1867   1.484       .  S
C1864      C1865   1.403       .  A
C1865      C1866   1.400       .  A
C1865      H1873   1.082       .  S
C1866      H1874   1.082       .  S
C1867      H1875   1.087       .  S
C1867      C1868   1.344       .  D
C1868      H1876   1.085       .  S
C1869      H1877   1.087       .  S
C1869      C1870   1.345       .  D
C1870      H1878   1.084       .  S
C1879      C1887   1.491       .  S
C1879      C1880   1.404       .  A
C1879      C1884   1.408       .  A
C1880      C1881   1.400       .  A
C1880      H1889   1.083       .  S
C1881      C1882   1.407       .  A
C1881      H1890   1.082       .  S
C1882      C1885   1.490       .  S
C1882      C1883   1.405       .  A
C1883      C1884   1.401       .  A
C1883      H1891   1.083       .  S
C1884      H1892   1.082       .  S
C1885      H1893   1.088       .  S
C1885      C1886   1.348       .  D
C1886      H1894   1.085       .  S
C1887      H1895   1.087       .  S
C1887      C1888   1.348       .  D
C1888      H1896   1.084       .  S
C1897      C1905   1.497       .  S
C1897      C1898   1.406       .  A
C1897      C1902   1.410       .  A
C1898      C1899   1.401       .  A
C1898      H1907   1.083       .  S
C1899      C1900   1.408       .  A
C1899      H1908   1.080       .  S
C1900      C1903   1.493       .  S
C1900      C1901   1.404       .  A
C1901      C1902   1.399       .  A
C1901      H1909   1.083       .  S
C1902      H1910   1.080       .  S
C1903      H1911   1.086       .  S
C1903      C1904   1.348       .  D
C1904      H1912   1.082       .  S
C1905      H1913   1.088       .  S
C1905      C1906   1.347       .  D
C1906      H1914   1.083       .  S
C1915      C1923   1.482       .  S
C1915      C1916   1.402       .  A
C1915      C1920   1.405       .  A
C1916      C1917   1.400       .  A
C1916      H1925   1.083       .  S
C1917      C1918   1.410       .  A
C1917      H1926   1.080       .  S
C1918      C1921   1.487       .  S
C1918      C1919   1.403       .  A
C1919      C1920   1.395       .  A
C1919      H1927   1.083       .  S
C1920      H1928   1.082       .  S
C1921      H1929   1.087       .  S
C1921      C1922   1.345       .  D
C1922      H1930   1.083       .  S
C1923      H1931   1.087       .  S
C1923      C1924   1.344       .  D
C1924      H1932   1.085       .  S
C1933      C1941   1.496       .  S
C1933      C1934   1.405       .  A
C1933      C1938   1.409       .  A
C1934      C1935   1.400       .  A
C1934      H1943   1.083       .  S
C1935      C1936   1.407       .  A
C1935      H1944   1.081       .  S
C1936      C1939   1.495       .  S
C1936      C1937   1.407       .  A
C1937      C1938   1.404       .  A
C1937      H1945   1.083       .  S
C1938      H1946   1.080       .  S
C1939      H1947   1.087       .  S
C1939      C1940   1.350       .  D
C1940      H1948   1.084       .  S
C1941      H1949   1.086       .  S
C1941      C1942   1.350       .  D
C1942      H1950   1.082       .  S
C1951      C1959   1.494       .  S
C1951      C1952   1.407       .  A
C1951      C1956   1.408       .  A
C1952      C1953   1.404       .  A
C1952      H1961   1.083       .  S
C1953      C1954   1.408   1_455  A
C1953      H1962   1.083   1_455  S
C1954      C1957   1.489       .  S
C1954      C1955   1.403   1_655  A
C1955      C1956   1.397       .  A
C1955      H1963   1.083       .  S
C1956      H1964   1.082       .  S
C1957      H1965   1.087       .  S
C1957      C1958   1.347       .  D
C1958      H1966   1.085       .  S
C1959      H1967   1.087       .  S
C1959      C1960   1.348       .  D
C1960      H1968   1.085       .  S
C1969      C1977   1.490       .  S
C1969      C1970   1.404       .  A
C1969      C1974   1.408       .  A
C1970      C1971   1.398       .  A
C1970      H1979   1.083       .  S
C1971      C1972   1.408       .  A
C1971      H1980   1.081       .  S
C1972      C1975   1.490       .  S
C1972      C1973   1.404       .  A
C1973      C1974   1.401       .  A
C1973      H1981   1.083       .  S
C1974      H1982   1.081       .  S
C1975      H1983   1.087       .  S
C1975      C1976   1.346       .  D
C1976      H1984   1.084       .  S
C1977      H1985   1.087       .  S
C1977      C1978   1.347       .  D
C1978      H1986   1.083       .  S
C1987      C1995   1.496       .  S
C1987      C1988   1.405       .  A
C1987      C1992   1.410       .  A
C1988      C1989   1.402       .  A
C1988      H1997   1.083       .  S
C1989      C1990   1.410       .  A
C1989      H1998   1.082       .  S
C1990      C1993   1.496       .  S
C1990      C1991   1.404       .  A
C1991      C1992   1.402       .  A
C1991      H1999   1.083       .  S
C1992      H2000   1.081       .  S
C1993      H2001   1.087       .  S
C1993      C1994   1.348       .  D
C1994      H2002   1.084       .  S
C1995      H2003   1.086       .  S
C1995      C1996   1.349       .  D
C1996      H2004   1.083       .  S
C2005      C2013   1.480       .  S
C2005      C2006   1.402       .  A
C2005      C2010   1.407       .  A
C2006      C2007   1.397   1_455  A
C2006      H2015   1.082       .  S
C2007      C2008   1.407       .  A
C2007      H2016   1.083       .  S
C2008      C2011   1.479       .  S
C2008      C2009   1.401       .  A
C2009      C2010   1.395   1_655  A
C2009      H2017   1.083       .  S
C2010      H2018   1.082       .  S
C2011      H2019   1.088       .  S
C2011      C2012   1.342       .  D
C2012      H2020   1.085       .  S
C2013      H2021   1.087       .  S
C2013      C2014   1.342       .  D
C2014      H2022   1.085       .  S
C2023      C2031   1.483       .  S
C2023      C2024   1.402       .  A
C2023      C2028   1.408       .  A
C2024      C2025   1.394       .  A
C2024      H2033   1.084       .  S
C2025      C2026   1.402       .  A
C2025      H2034   1.084       .  S
C2026      C2029   1.484       .  S
C2026      C2027   1.408       .  A
C2027      C2028   1.404       .  A
C2027      H2035   1.082       .  S
C2028      H2036   1.081       .  S
C2029      H2037   1.088       .  S
C2029      C2030   1.347       .  D
C2030      H2038   1.085       .  S
C2031      H2039   1.088       .  S
C2031      C2032   1.346       .  D
C2032      H2040   1.085       .  S
C2041      C2049   1.488       .  S
C2041      C2042   1.405       .  A
C2041      C2046   1.406       .  A
C2042      C2043   1.402       .  A
C2042      H2051   1.083       .  S
C2043      C2044   1.408       .  A
C2043      H2052   1.082       .  S
C2044      C2047   1.488       .  S
C2044      C2045   1.404       .  A
C2045      C2046   1.398       .  A
C2045      H2053   1.083       .  S
C2046      H2054   1.082       .  S
C2047      H2055   1.087       .  S
C2047      C2048   1.347       .  D
C2048      H2056   1.085       .  S
C2049      H2057   1.087       .  S
C2049      C2050   1.347       .  D
C2050      H2058   1.085       .  S
C2059      C2067   1.495       .  S
C2059      C2060   1.407       .  A
C2059      C2064   1.408       .  A
C2060      C2061   1.405       .  A
C2060      H2069   1.083       .  S
C2061      C2062   1.408   1_455  A
C2061      H2070   1.082   1_455  S
C2062      C2065   1.491       .  S
C2062      C2063   1.403   1_655  A
C2063      C2064   1.398       .  A
C2063      H2071   1.083       .  S
C2064      H2072   1.081       .  S
C2065      H2073   1.087       .  S
C2065      C2066   1.348       .  D
C2066      H2074   1.085       .  S
C2067      H2075   1.087       .  S
C2067      C2068   1.349       .  D
C2068      H2076   1.085       .  S
C2077      C2085   1.489       .  S
C2077      C2078   1.403       .  A
C2077      C2082   1.407       .  A
C2078      C2079   1.398       .  A
C2078      H2087   1.083       .  S
C2079      C2080   1.410       .  A
C2079      H2088   1.079       .  S
C2080      C2083   1.495       .  S
C2080      C2081   1.407       .  A
C2081      C2082   1.401       .  A
C2081      H2089   1.083       .  S
C2082      H2090   1.082       .  S
C2083      H2091   1.087       .  S
C2083      C2084   1.348       .  D
C2084      H2092   1.082       .  S
C2085      H2093   1.087       .  S
C2085      C2086   1.346       .  D
C2086      H2094   1.085       .  S
C2095      C2103   1.487       .  S
C2095      C2096   1.404       .  A
C2095      C2100   1.405       .  A
C2096      C2097   1.404       .  A
C2096      H2105   1.082       .  S
C2097      C2098   1.410       .  A
C2097      H2106   1.081       .  S
C2098      C2101   1.489       .  S
C2098      C2099   1.404       .  A
C2099      C2100   1.395       .  A
C2099      H2107   1.082       .  S
C2100      H2108   1.083       .  S
C2101      H2109   1.087       .  S
C2101      C2102   1.347       .  D
C2102      H2110   1.084       .  S
C2103      H2111   1.086       .  S
C2103      C2104   1.344       .  D
C2104      H2112   1.086       .  S
C2113      C2121   1.492       .  S
C2113      C2114   1.404       .  A
C2113      C2118   1.409       .  A
C2114      C2115   1.399       .  A
C2114      H2123   1.083       .  S
C2115      C2116   1.408       .  A
C2115      H2124   1.080       .  S
C2116      C2119   1.491       .  S
C2116      C2117   1.405       .  A
C2117      C2118   1.400       .  A
C2117      H2125   1.083       .  S
C2118      H2126   1.081       .  S
C2119      H2127   1.087       .  S
C2119      C2120   1.348       .  D
C2120      H2128   1.083       .  S
C2121      H2129   1.087       .  S
C2121      C2122   1.346       .  D
C2122      H2130   1.083       .  S
C2131      C2139   1.485       .  S
C2131      C2132   1.402       .  A
C2131      C2136   1.408       .  A
C2132      C2133   1.397   1_455  A
C2132      H2141   1.082       .  S
C2133      C2134   1.408       .  A
C2133      H2142   1.082       .  S
C2134      C2137   1.483       .  S
C2134      C2135   1.402       .  A
C2135      C2136   1.396   1_655  A
C2135      H2143   1.083       .  S
C2136      H2144   1.081       .  S
C2137      H2145   1.087       .  S
C2137      C2138   1.343       .  D
C2138      H2146   1.084       .  S
C2139      H2147   1.087       .  S
C2139      C2140   1.343       .  D
C2140      H2148   1.084       .  S
C2149      C2157   1.486       .  S
C2149      C2150   1.403       .  A
C2149      C2154   1.406       .  A
C2150      C2151   1.397       .  A
C2150      H2159   1.083       .  S
C2151      C2152   1.408       .  A
C2151      H2160   1.081       .  S
C2152      C2155   1.491       .  S
C2152      C2153   1.406       .  A
C2153      C2154   1.402       .  A
C2153      H2161   1.083       .  S
C2154      H2162   1.081       .  S
C2155      H2163   1.087       .  S
C2155      C2156   1.346       .  D
C2156      H2164   1.085       .  S
C2157      H2165   1.087       .  S
C2157      C2158   1.348       .  D
C2158      H2166   1.085       .  S
C2167      C2175   1.487       .  S
C2167      C2168   1.404       .  A
C2167      C2172   1.407       .  A
C2168      C2169   1.401       .  A
C2168      H2177   1.083       .  S
C2169      C2170   1.410       .  A
C2169      H2178   1.081       .  S
C2170      C2173   1.489       .  S
C2170      C2171   1.403       .  A
C2171      C2172   1.395       .  A
C2171      H2179   1.083       .  S
C2172      H2180   1.081       .  S
C2173      H2181   1.088       .  S
C2173      C2174   1.345       .  D
C2174      H2182   1.084       .  S
C2175      H2183   1.088       .  S
C2175      C2176   1.345       .  D
C2176      H2184   1.084       .  S
C2185      C2193   1.491       .  S
C2185      C2186   1.409       .  A
C2185      C2190   1.405       .  A
C2186      C2187   1.402       .  A
C2186      H2195   1.080       .  S
C2187      C2188   1.409       .  A
C2187      H2196   1.081       .  S
C2188      C2191   1.490       .  S
C2188      C2189   1.401       .  A
C2189      C2190   1.397       .  A
C2189      H2197   1.084       .  S
C2190      H2198   1.084       .  S
C2191      H2199   1.088       .  S
C2191      C2192   1.344       .  D
C2192      H2200   1.085       .  S
C2193      H2201   1.087       .  S
C2193      C2194   1.348       .  D
C2194      H2202   1.083       .  S
C2203      C2211   1.483       .  S
C2203      C2204   1.402       .  A
C2203      C2208   1.407       .  A
C2204      C2205   1.398       .  A
C2204      H2213   1.083       .  S
C2205      C2206   1.408       .  A
C2205      H2214   1.081       .  S
C2206      C2209   1.486       .  S
C2206      C2207   1.403       .  A
C2207      C2208   1.398       .  A
C2207      H2215   1.083       .  S
C2208      H2216   1.082       .  S
C2209      H2217   1.087       .  S
C2209      C2210   1.344       .  D
C2210      H2218   1.084       .  S
C2211      H2219   1.087       .  S
C2211      C2212   1.344       .  D
C2212      H2220   1.085       .  S
C2221      C2229   1.489       .  S
C2221      C2222   1.404       .  A
C2221      C2226   1.408       .  A
C2222      C2223   1.395       .  A
C2222      H2231   1.083       .  S
C2223      C2224   1.406       .  A
C2223      H2232   1.081       .  S
C2224      C2227   1.489       .  S
C2224      C2225   1.405       .  A
C2225      C2226   1.403       .  A
C2225      H2233   1.083       .  S
C2226      H2234   1.081       .  S
C2227      H2235   1.087       .  S
C2227      C2228   1.346       .  D
C2228      H2236   1.085       .  S
C2229      H2237   1.087       .  S
C2229      C2230   1.348       .  D
C2230      H2238   1.084       .  S
C2239      C2247   1.492       .  S
C2239      C2240   1.406       .  A
C2239      C2244   1.408       .  A
C2240      C2241   1.402   1_455  A
C2240      H2249   1.083       .  S
C2241      C2242   1.408       .  A
C2241      H2250   1.083       .  S
C2242      C2245   1.490       .  S
C2242      C2243   1.404       .  A
C2243      C2244   1.400   1_655  A
C2243      H2251   1.083       .  S
C2244      H2252   1.082       .  S
C2245      H2253   1.088       .  S
C2245      C2246   1.347       .  D
C2246      H2254   1.086       .  S
C2247      H2255   1.087       .  S
C2247      C2248   1.349       .  D
C2248      H2256   1.085       .  S
C2257      C2265   1.489       .  S
C2257      C2258   1.403       .  A
C2257      C2262   1.408       .  A
C2258      C2259   1.397       .  A
C2258      H2267   1.083       .  S
C2259      C2260   1.408       .  A
C2259      H2268   1.082       .  S
C2260      C2263   1.491       .  S
C2260      C2261   1.405       .  A
C2261      C2262   1.403       .  A
C2261      H2269   1.083       .  S
C2262      H2270   1.082       .  S
C2263      H2271   1.087       .  S
C2263      C2264   1.346       .  D
C2264      H2272   1.085       .  S
C2265      H2273   1.087       .  S
C2265      C2266   1.347       .  D
C2266      H2274   1.085       .  S
C2275      C2283   1.496       .  S
C2275      C2276   1.405       .  A
C2275      C2280   1.408       .  A
C2276      C2277   1.402       .  A
C2276      H2285   1.083       .  S
C2277      C2278   1.409       .  A
C2277      H2286   1.080       .  S
C2278      C2281   1.496       .  S
C2278      C2279   1.406       .  A
C2279      C2280   1.403       .  A
C2279      H2287   1.083       .  S
C2280      H2288   1.082       .  S
C2281      H2289   1.087       .  S
C2281      C2282   1.350       .  D
C2282      H2290   1.083       .  S
C2283      H2291   1.087       .  S
C2283      C2284   1.349       .  D
C2284      H2292   1.085       .  S
C2293      C2301   1.493       .  S
C2293      C2294   1.405       .  A
C2293      C2298   1.409       .  A
C2294      C2295   1.401   1_545  A
C2294      H2303   1.082       .  S
C2295      C2296   1.407       .  A
C2295      H2304   1.081       .  S
C2296      C2299   1.489       .  S
C2296      C2297   1.404       .  A
C2297      C2298   1.400   1_565  A
C2297      H2305   1.083       .  S
C2298      H2306   1.081       .  S
C2299      H2307   1.087       .  S
C2299      C2300   1.347       .  D
C2300      H2308   1.086       .  S
C2301      H2309   1.086       .  S
C2301      C2302   1.348       .  D
C2302      H2310   1.083       .  S
C2311      C2319   1.493       .  S
C2311      C2312   1.404       .  A
C2311      C2316   1.409       .  A
C2312      C2313   1.399       .  A
C2312      H2321   1.083       .  S
C2313      C2314   1.409       .  A
C2313      H2322   1.081       .  S
C2314      C2317   1.494       .  S
C2314      C2315   1.404       .  A
C2315      C2316   1.401       .  A
C2315      H2323   1.083       .  S
C2316      H2324   1.081       .  S
C2317      H2325   1.087       .  S
C2317      C2318   1.347       .  D
C2318      H2326   1.083       .  S
C2319      H2327   1.087       .  S
C2319      C2320   1.346       .  D
C2320      H2328   1.084       .  S
C2329      C2337   1.487       .  S
C2329      C2330   1.404       .  A
C2329      C2334   1.405       .  A
C2330      C2331   1.403       .  A
C2330      H2339   1.083       .  S
C2331      C2332   1.410       .  A
C2331      H2340   1.081       .  S
C2332      C2335   1.489       .  S
C2332      C2333   1.403       .  A
C2333      C2334   1.395       .  A
C2333      H2341   1.083       .  S
C2334      H2342   1.082       .  S
C2335      H2343   1.087       .  S
C2335      C2336   1.346       .  D
C2336      H2344   1.083       .  S
C2337      H2345   1.086       .  S
C2337      C2338   1.345       .  D
C2338      H2346   1.085       .  S
C2347      C2355   1.491       .  S
C2347      C2348   1.404       .  A
C2347      C2352   1.408       .  A
C2348      C2349   1.400       .  A
C2348      H2357   1.083       .  S
C2349      C2350   1.409   1_545  A
C2349      H2358   1.080   1_545  S
C2350      C2353   1.491       .  S
C2350      C2351   1.403   1_565  A
C2351      C2352   1.397       .  A
C2351      H2359   1.083   1_545  S
C2352      H2360   1.079       .  S
C2353      H2361   1.087       .  S
C2353      C2354   1.346       .  D
C2354      H2362   1.083       .  S
C2355      H2363   1.087       .  S
C2355      C2356   1.346       .  D
C2356      H2364   1.082       .  S
C2365      C2373   1.490       .  S
C2365      C2366   1.404       .  A
C2365      C2370   1.407       .  A
C2366      C2367   1.400       .  A
C2366      H2375   1.084       .  S
C2367      C2368   1.410       .  A
C2367      H2376   1.080       .  S
C2368      C2371   1.495       .  S
C2368      C2369   1.405       .  A
C2369      C2370   1.399       .  A
C2369      H2377   1.082       .  S
C2370      H2378   1.082       .  S
C2371      H2379   1.087       .  S
C2371      C2372   1.347       .  D
C2372      H2380   1.082       .  S
C2373      H2381   1.088       .  S
C2373      C2374   1.348       .  D
C2374      H2382   1.085       .  S
C2383      C2391   1.487       .  S
C2383      C2384   1.404       .  A
C2383      C2388   1.408       .  A
C2384      C2385   1.398   1_545  A
C2384      H2393   1.084       .  S
C2385      C2386   1.407       .  A
C2385      H2394   1.081       .  S
C2386      C2389   1.485       .  S
C2386      C2387   1.402       .  A
C2387      C2388   1.397   1_565  A
C2387      H2395   1.083       .  S
C2388      H2396   1.080       .  S
C2389      H2397   1.087       .  S
C2389      C2390   1.344       .  D
C2390      H2398   1.084       .  S
C2391      H2399   1.088       .  S
C2391      C2392   1.345       .  D
C2392      H2400   1.083       .  S
C2401      C2409   1.492       .  S
C2401      C2402   1.406       .  A
C2401      C2406   1.407       .  A
C2402      C2403   1.405       .  A
C2402      H2411   1.083       .  S
C2403      C2404   1.409       .  A
C2403      H2412   1.081       .  S
C2404      C2407   1.491       .  S
C2404      C2405   1.404       .  A
C2405      C2406   1.395       .  A
C2405      H2413   1.083       .  S
C2406      H2414   1.081       .  S
C2407      H2415   1.087       .  S
C2407      C2408   1.348       .  D
C2408      H2416   1.083       .  S
C2409      H2417   1.087       .  S
C2409      C2410   1.348       .  D
C2410      H2418   1.085       .  S
C2419      C2427   1.497       .  S
C2419      C2420   1.405       .  A
C2419      C2424   1.410       .  A
C2420      C2421   1.400       .  A
C2420      H2429   1.083       .  S
C2421      C2422   1.409       .  A
C2421      H2430   1.080       .  S
C2422      C2425   1.497       .  S
C2422      C2423   1.405       .  A
C2423      C2424   1.403       .  A
C2423      H2431   1.082       .  S
C2424      H2432   1.080       .  S
C2425      H2433   1.086       .  S
C2425      C2426   1.348       .  D
C2426      H2434   1.083       .  S
C2427      H2435   1.087       .  S
C2427      C2428   1.349       .  D
C2428      H2436   1.083       .  S
C2437      C2445   1.482       .  S
C2437      C2438   1.401       .  A
C2437      C2442   1.408       .  A
C2438      C2439   1.396       .  A
C2438      H2447   1.083       .  S
C2439      C2440   1.408       .  A
C2439      H2448   1.081       .  S
C2440      C2443   1.482       .  S
C2440      C2441   1.402       .  A
C2441      C2442   1.396       .  A
C2441      H2449   1.083       .  S
C2442      H2450   1.082       .  S
C2443      H2451   1.088       .  S
C2443      C2444   1.343       .  D
C2444      H2452   1.084       .  S
C2445      H2453   1.087       .  S
C2445      C2446   1.342       .  D
C2446      H2454   1.085       .  S
C2455      C2463   1.496       .  S
C2455      C2456   1.404       .  A
C2455      C2460   1.410       .  A
C2456      C2457   1.400       .  A
C2456      H2465   1.083       .  S
C2457      C2458   1.411       .  A
C2457      H2466   1.078       .  S
C2458      C2461   1.498       .  S
C2458      C2459   1.405       .  A
C2459      C2460   1.401       .  A
C2459      H2467   1.083       .  S
C2460      H2468   1.079       .  S
C2461      H2469   1.087       .  S
C2461      C2462   1.347       .  D
C2462      H2470   1.081       .  S
C2463      H2471   1.087       .  S
C2463      C2464   1.347       .  D
C2464      H2472   1.082       .  S
C2473      C2481   1.491       .  S
C2473      C2474   1.404       .  A
C2473      C2478   1.409       .  A
C2474      C2475   1.397       .  A
C2474      H2483   1.083       .  S
C2475      C2476   1.407       .  A
C2475      H2484   1.081       .  S
C2476      C2479   1.492       .  S
C2476      C2477   1.405       .  A
C2477      C2478   1.403       .  A
C2477      H2485   1.082       .  S
C2478      H2486   1.081       .  S
C2479      H2487   1.087       .  S
C2479      C2480   1.347       .  D
C2480      H2488   1.084       .  S
C2481      H2489   1.087       .  S
C2481      C2482   1.348       .  D
C2482      H2490   1.083       .  S
C2491      C2499   1.489       .  S
C2491      C2492   1.404       .  A
C2491      C2496   1.408       .  A
C2492      C2493   1.400       .  A
C2492      H2501   1.083       .  S
C2493      C2494   1.409       .  A
C2493      H2502   1.082       .  S
C2494      C2497   1.489       .  S
C2494      C2495   1.403       .  A
C2495      C2496   1.398       .  A
C2495      H2503   1.083       .  S
C2496      H2504   1.081       .  S
C2497      H2505   1.087       .  S
C2497      C2498   1.346       .  D
C2498      H2506   1.084       .  S
C2499      H2507   1.087       .  S
C2499      C2500   1.346       .  D
C2500      H2508   1.084       .  S
C2509      C2517   1.486       .  S
C2509      C2510   1.403       .  A
C2509      C2514   1.407       .  A
C2510      C2511   1.399       .  A
C2510      H2519   1.082       .  S
C2511      C2512   1.409       .  A
C2511      H2520   1.082       .  S
C2512      C2515   1.491       .  S
C2512      C2513   1.405       .  A
C2513      C2514   1.401       .  A
C2513      H2521   1.083       .  S
C2514      H2522   1.083       .  S
C2515      H2523   1.087       .  S
C2515      C2516   1.346       .  D
C2516      H2524   1.085       .  S
C2517      H2525   1.087       .  S
C2517      C2518   1.346       .  D
C2518      H2526   1.085       .  S
C2527      C2535   1.489       .  S
C2527      C2528   1.403       .  A
C2527      C2532   1.408       .  A
C2528      C2529   1.398   1_545  A
C2528      H2537   1.083       .  S
C2529      C2530   1.408       .  A
C2529      H2538   1.082       .  S
C2530      C2533   1.493       .  S
C2530      C2531   1.405   1_565  A
C2531      C2532   1.403       .  A
C2531      H2539   1.083   1_545  S
C2532      H2540   1.082       .  S
C2533      H2541   1.087       .  S
C2533      C2534   1.347       .  D
C2534      H2542   1.083       .  S
C2535      H2543   1.088       .  S
C2535      C2536   1.348       .  D
C2536      H2544   1.085       .  S
C2545      C2553   1.492       .  S
C2545      C2546   1.404       .  A
C2545      C2550   1.406       .  A
C2546      C2547   1.404       .  A
C2546      H2555   1.083       .  S
C2547      C2548   1.411       .  A
C2547      H2556   1.080       .  S
C2548      C2551   1.498       .  S
C2548      C2549   1.406       .  A
C2549      C2550   1.401       .  A
C2549      H2557   1.083       .  S
C2550      H2558   1.083       .  S
C2551      H2559   1.087       .  S
C2551      C2552   1.349       .  D
C2552      H2560   1.083       .  S
C2553      H2561   1.087       .  S
C2553      C2554   1.348       .  D
C2554      H2562   1.086       .  S
C2563      C2571   1.495       .  S
C2563      C2564   1.405       .  A
C2563      C2568   1.409       .  A
C2564      C2565   1.399       .  A
C2564      H2573   1.083       .  S
C2565      C2566   1.407       .  A
C2565      H2574   1.081       .  S
C2566      C2569   1.492       .  S
C2566      C2567   1.405       .  A
C2567      C2568   1.403       .  A
C2567      H2575   1.083       .  S
C2568      H2576   1.081       .  S
C2569      H2577   1.087       .  S
C2569      C2570   1.348       .  D
C2570      H2578   1.084       .  S
C2571      H2579   1.087       .  S
C2571      C2572   1.349       .  D
C2572      H2580   1.084       .  S
C2581      C2589   1.489       .  S
C2581      C2582   1.405       .  A
C2581      C2586   1.407       .  A
C2582      C2583   1.403   1_545  A
C2582      H2591   1.084       .  S
C2583      C2584   1.408       .  A
C2583      H2592   1.081       .  S
C2584      C2587   1.487       .  S
C2584      C2585   1.402   1_565  A
C2585      C2586   1.396       .  A
C2585      H2593   1.084   1_545  S
C2586      H2594   1.082       .  S
C2587      H2595   1.087       .  S
C2587      C2588   1.345       .  D
C2588      H2596   1.085       .  S
C2589      H2597   1.087       .  S
C2589      C2590   1.347       .  D
C2590      H2598   1.085       .  S
C2599      C2607   1.492       .  S
C2599      C2600   1.406       .  A
C2599      C2604   1.407       .  A
C2600      C2601   1.405       .  A
C2600      H2609   1.082       .  S
C2601      C2602   1.409       .  A
C2601      H2610   1.082       .  S
C2602      C2605   1.490       .  S
C2602      C2603   1.403       .  A
C2603      C2604   1.395       .  A
C2603      H2611   1.083       .  S
C2604      H2612   1.082       .  S
C2605      H2613   1.087       .  S
C2605      C2606   1.348       .  D
C2606      H2614   1.084       .  S
C2607      H2615   1.086       .  S
C2607      C2608   1.346       .  D
C2608      H2616   1.084       .  S
C2617      C2625   1.491       .  S
C2617      C2618   1.405       .  A
C2617      C2622   1.406       .  A
C2618      C2619   1.402       .  A
C2618      H2627   1.083       .  S
C2619      C2620   1.408       .  A
C2619      H2628   1.081       .  S
C2620      C2623   1.492       .  S
C2620      C2621   1.406       .  A
C2621      C2622   1.400       .  A
C2621      H2629   1.083       .  S
C2622      H2630   1.082       .  S
C2623      H2631   1.087       .  S
C2623      C2624   1.350       .  D
C2624      H2632   1.083       .  S
C2625      H2633   1.087       .  S
C2625      C2626   1.349       .  D
C2626      H2634   1.085       .  S
C2635      C2643   1.489       .  S
C2635      C2636   1.404   1_565  A
C2635      C2640   1.407       .  A
C2636      C2637   1.400       .  A
C2636      H2645   1.083   1_545  S
C2637      C2638   1.407       .  A
C2637      H2646   1.083       .  S
C2638      C2641   1.487       .  S
C2638      C2639   1.404       .  A
C2639      C2640   1.402   1_545  A
C2639      H2647   1.083       .  S
C2640      H2648   1.083       .  S
C2641      H2649   1.087       .  S
C2641      C2642   1.346       .  D
C2642      H2650   1.086       .  S
C2643      H2651   1.087       .  S
C2643      C2644   1.347       .  D
C2644      H2652   1.086       .  S
C2653      C2661   1.498       .  S
C2653      C2654   1.407       .  A
C2653      C2658   1.408       .  A
C2654      C2655   1.406       .  A
C2654      H2663   1.083       .  S
C2655      C2656   1.410       .  A
C2655      H2664   1.081       .  S
C2656      C2659   1.497       .  S
C2656      C2657   1.404       .  A
C2657      C2658   1.399       .  A
C2657      H2665   1.083       .  S
C2658      H2666   1.082       .  S
C2659      H2667   1.087       .  S
C2659      C2660   1.349       .  D
C2660      H2668   1.084       .  S
C2661      H2669   1.087       .  S
C2661      C2662   1.349       .  D
C2662      H2670   1.085       .  S
C2671      C2679   1.490       .  S
C2671      C2672   1.404       .  A
C2671      C2676   1.408       .  A
C2672      C2673   1.398       .  A
C2672      H2681   1.082       .  S
C2673      C2674   1.407       .  A
C2673      H2682   1.081       .  S
C2674      C2677   1.489       .  S
C2674      C2675   1.405       .  A
C2675      C2676   1.401       .  A
C2675      H2683   1.083       .  S
C2676      H2684   1.082       .  S
C2677      H2685   1.087       .  S
C2677      C2678   1.347       .  D
C2678      H2686   1.085       .  S
C2679      H2687   1.087       .  S
C2679      C2680   1.348       .  D
C2680      H2688   1.085       .  S
C2689      C2697   1.489       .  S
C2689      C2690   1.403       .  A
C2689      C2694   1.408       .  A
C2690      C2691   1.396       .  A
C2690      H2699   1.082       .  S
C2691      C2692   1.409       .  A
C2691      H2700   1.081       .  S
C2692      C2695   1.495       .  S
C2692      C2693   1.407       .  A
C2693      C2694   1.405       .  A
C2693      H2701   1.083       .  S
C2694      H2702   1.082       .  S
C2695      H2703   1.087       .  S
C2695      C2696   1.347       .  D
C2696      H2704   1.084       .  S
C2697      H2705   1.087       .  S
C2697      C2698   1.347       .  D
C2698      H2706   1.085       .  S
C2707      C2715   1.481       .  S
C2707      C2708   1.402       .  A
C2707      C2712   1.405       .  A
C2708      C2709   1.398   1_545  A
C2708      H2717   1.083       .  S
C2709      C2710   1.408       .  A
C2709      H2718   1.080       .  S
C2710      C2713   1.484       .  S
C2710      C2711   1.404       .  A
C2711      C2712   1.394   1_565  A
C2711      H2719   1.084       .  S
C2712      H2720   1.082       .  S
C2713      H2721   1.087       .  S
C2713      C2714   1.345       .  D
C2714      H2722   1.083       .  S
C2715      H2723   1.087       .  S
C2715      C2716   1.343       .  D
C2716      H2724   1.085       .  S
C2725      C2733   1.495       .  S
C2725      C2726   1.407       .  A
C2725      C2730   1.409       .  A
C2726      C2727   1.404       .  A
C2726      H2735   1.083       .  S
C2727      C2728   1.407       .  A
C2727      H2736   1.082       .  S
C2728      C2731   1.488       .  S
C2728      C2729   1.402       .  A
C2729      C2730   1.398       .  A
C2729      H2737   1.082       .  S
C2730      H2738   1.080       .  S
C2731      H2739   1.087       .  S
C2731      C2732   1.347       .  D
C2732      H2740   1.085       .  S
C2733      H2741   1.087       .  S
C2733      C2734   1.348       .  D
C2734      H2742   1.084       .  S
C2743      C2751   1.485       .  S
C2743      C2744   1.401       .  A
C2743      C2748   1.407       .  A
C2744      C2745   1.396       .  A
C2744      H2753   1.083       .  S
C2745      C2746   1.410       .  A
C2745      H2754   1.078       .  S
C2746      C2749   1.490       .  S
C2746      C2747   1.404       .  A
C2747      C2748   1.398       .  A
C2747      H2755   1.083       .  S
C2748      H2756   1.081       .  S
C2749      H2757   1.087       .  S
C2749      C2750   1.345       .  D
C2750      H2758   1.081       .  S
C2751      H2759   1.088       .  S
C2751      C2752   1.344       .  D
C2752      H2760   1.084       .  S
C2761      C2769   1.496       .  S
C2761      C2762   1.406       .  A
C2761      C2766   1.409       .  A
C2762      C2763   1.402       .  A
C2762      H2771   1.083       .  S
C2763      C2764   1.407       .  A
C2763      H2772   1.081       .  S
C2764      C2767   1.493       .  S
C2764      C2765   1.405       .  A
C2765      C2766   1.401       .  A
C2765      H2773   1.082       .  S
C2766      H2774   1.081       .  S
C2767      H2775   1.086       .  S
C2767      C2768   1.350       .  D
C2768      H2776   1.083       .  S
C2769      H2777   1.087       .  S
C2769      C2770   1.349       .  D
C2770      H2778   1.083       .  S
C2779      C2787   1.487       .  S
C2779      C2780   1.405       .  A
C2779      C2784   1.407       .  A
C2780      C2781   1.400       .  A
C2780      H2789   1.083       .  S
C2781      C2782   1.407       .  A
C2781      H2790   1.081       .  S
C2782      C2785   1.483       .  S
C2782      C2783   1.402       .  A
C2783      C2784   1.396       .  A
C2783      H2791   1.083       .  S
C2784      H2792   1.081       .  S
C2785      H2793   1.087       .  S
C2785      C2786   1.345       .  D
C2786      H2794   1.084       .  S
C2787      H2795   1.087       .  S
C2787      C2788   1.345       .  D
C2788      H2796   1.084       .  S
C2797      C2805   1.486       .  S
C2797      C2798   1.404       .  A
C2797      C2802   1.406       .  A
C2798      C2799   1.399       .  A
C2798      H2807   1.082       .  S
C2799      C2800   1.407       .  A
C2799      H2808   1.082       .  S
C2800      C2803   1.487       .  S
C2800      C2801   1.405       .  A
C2801      C2802   1.399       .  A
C2801      H2809   1.083       .  S
C2802      H2810   1.081       .  S
C2803      H2811   1.087       .  S
C2803      C2804   1.347       .  D
C2804      H2812   1.085       .  S
C2805      H2813   1.087       .  S
C2805      C2806   1.347       .  D
C2806      H2814   1.085       .  S
C2815      C2823   1.491       .  S
C2815      C2816   1.406       .  A
C2815      C2820   1.407       .  A
C2816      C2817   1.403       .  A
C2816      H2825   1.083       .  S
C2817      C2818   1.407   1_545  A
C2817      H2826   1.082   1_545  S
C2818      C2821   1.486       .  S
C2818      C2819   1.403   1_565  A
C2819      C2820   1.397       .  A
C2819      H2827   1.082   1_545  S
C2820      H2828   1.082       .  S
C2821      H2829   1.087       .  S
C2821      C2822   1.347       .  D
C2822      H2830   1.085       .  S
C2823      H2831   1.087       .  S
C2823      C2824   1.346       .  D
C2824      H2832   1.085       .  S
C2833      C2841   1.489       .  S
C2833      C2834   1.405       .  A
C2833      C2838   1.408       .  A
C2834      C2835   1.401       .  A
C2834      H2843   1.083       .  S
C2835      C2836   1.407       .  A
C2835      H2844   1.082       .  S
C2836      C2839   1.486       .  S
C2836      C2837   1.403       .  A
C2837      C2838   1.397       .  A
C2837      H2845   1.083       .  S
C2838      H2846   1.081       .  S
C2839      H2847   1.087       .  S
C2839      C2840   1.346       .  D
C2840      H2848   1.084       .  S
C2841      H2849   1.087       .  S
C2841      C2842   1.346       .  D
C2842      H2850   1.084       .  S
C2851      C2859   1.488       .  S
C2851      C2852   1.404       .  A
C2851      C2856   1.408       .  A
C2852      C2853   1.400   1_554  A
C2852      H2861   1.083       .  S
C2853      C2854   1.407       .  A
C2853      H2862   1.082       .  S
C2854      C2857   1.488       .  S
C2854      C2855   1.404       .  A
C2855      C2856   1.401   1_556  A
C2855      H2863   1.083       .  S
C2856      H2864   1.082       .  S
C2857      H2865   1.087       .  S
C2857      C2858   1.347       .  D
C2858      H2866   1.086       .  S
C2859      H2867   1.088       .  S
C2859      C2860   1.346       .  D
C2860      H2868   1.086       .  S
C2869      C2877   1.488       .  S
C2869      C2870   1.402       .  A
C2869      C2874   1.409       .  A
C2870      C2871   1.396       .  A
C2870      H2879   1.083       .  S
C2871      C2872   1.408       .  A
C2871      H2880   1.082       .  S
C2872      C2875   1.491       .  S
C2872      C2873   1.405       .  A
C2873      C2874   1.404       .  A
C2873      H2881   1.082       .  S
C2874      H2882   1.082       .  S
C2875      H2883   1.087       .  S
C2875      C2876   1.346       .  D
C2876      H2884   1.085       .  S
C2877      H2885   1.087       .  S
C2877      C2878   1.346       .  D
C2878      H2886   1.084       .  S
C2887      C2895   1.489       .  S
C2887      C2888   1.404       .  A
C2887      C2892   1.408       .  A
C2888      C2889   1.399       .  A
C2888      H2897   1.083       .  S
C2889      C2890   1.407       .  A
C2889      H2898   1.082       .  S
C2890      C2893   1.490       .  S
C2890      C2891   1.405       .  A
C2891      C2892   1.402       .  A
C2891      H2899   1.083       .  S
C2892      H2900   1.082       .  S
C2893      H2901   1.087       .  S
C2893      C2894   1.348       .  D
C2894      H2902   1.085       .  S
C2895      H2903   1.087       .  S
C2895      C2896   1.347       .  D
C2896      H2904   1.085       .  S
C2905      C2913   1.482       .  S
C2905      C2906   1.401       .  A
C2905      C2910   1.407       .  A
C2906      C2907   1.397   1_554  A
C2906      H2915   1.082       .  S
C2907      C2908   1.407       .  A
C2907      H2916   1.082       .  S
C2908      C2911   1.480       .  S
C2908      C2909   1.401       .  A
C2909      C2910   1.397   1_556  A
C2909      H2917   1.083       .  S
C2910      H2918   1.082       .  S
C2911      H2919   1.087       .  S
C2911      C2912   1.342       .  D
C2912      H2920   1.085       .  S
C2913      H2921   1.087       .  S
C2913      C2914   1.343       .  D
C2914      H2922   1.085       .  S
C2923      C2931   1.491       .  S
C2923      C2924   1.406       .  A
C2923      C2928   1.406       .  A
C2924      C2925   1.405       .  A
C2924      H2933   1.082       .  S
C2925      C2926   1.409       .  A
C2925      H2934   1.081       .  S
C2926      C2929   1.489       .  S
C2926      C2927   1.403       .  A
C2927      C2928   1.393       .  A
C2927      H2935   1.083       .  S
C2928      H2936   1.082       .  S
C2929      H2937   1.087       .  S
C2929      C2930   1.347       .  D
C2930      H2938   1.083       .  S
C2931      H2939   1.086       .  S
C2931      C2932   1.347       .  D
C2932      H2940   1.084       .  S
C2941      C2949   1.481       .  S
C2941      C2942   1.402       .  A
C2941      C2946   1.407       .  A
C2942      C2943   1.397   1_556  A
C2942      H2951   1.082       .  S
C2943      C2944   1.408       .  A
C2943      H2952   1.082       .  S
C2944      C2947   1.483       .  S
C2944      C2945   1.402       .  A
C2945      C2946   1.397   1_554  A
C2945      H2953   1.082       .  S
C2946      H2954   1.082       .  S
C2947      H2955   1.087       .  S
C2947      C2948   1.343       .  D
C2948      H2956   1.085       .  S
C2949      H2957   1.087       .  S
C2949      C2950   1.343       .  D
C2950      H2958   1.084       .  S
C2959      C2967   1.499       .  S
C2959      C2960   1.407       .  A
C2959      C2964   1.410       .  A
C2960      C2961   1.403       .  A
C2960      H2969   1.083       .  S
C2961      C2962   1.407       .  A
C2961      H2970   1.082       .  S
C2962      C2965   1.492       .  S
C2962      C2963   1.404       .  A
C2963      C2964   1.400       .  A
C2963      H2971   1.083       .  S
C2964      H2972   1.080       .  S
C2965      H2973   1.087       .  S
C2965      C2966   1.350       .  D
C2966      H2974   1.085       .  S
C2967      H2975   1.088       .  S
C2967      C2968   1.349       .  D
C2968      H2976   1.083       .  S
C2977      C2985   1.492       .  S
C2977      C2978   1.404       .  A
C2977      C2982   1.408       .  A
C2978      C2979   1.401       .  A
C2978      H2987   1.082       .  S
C2979      C2980   1.409       .  A
C2979      H2988   1.082       .  S
C2980      C2983   1.497       .  S
C2980      C2981   1.406       .  A
C2981      C2982   1.403       .  A
C2981      H2989   1.083       .  S
C2982      H2990   1.083       .  S
C2983      H2991   1.088       .  S
C2983      C2984   1.349       .  D
C2984      H2992   1.085       .  S
C2985      H2993   1.087       .  S
C2985      C2986   1.348       .  D
C2986      H2994   1.085       .  S
C2995      C3003   1.486       .  S
C2995      C2996   1.403       .  A
C2995      C3000   1.409       .  A
C2996      C2997   1.396       .  A
C2996      H3005   1.083       .  S
C2997      C2998   1.407       .  A
C2997      H3006   1.081       .  S
C2998      C3001   1.482       .  S
C2998      C2999   1.402       .  A
C2999      C3000   1.397       .  A
C2999      H3007   1.083       .  S
C3000      H3008   1.080       .  S
C3001      H3009   1.087       .  S
C3001      C3002   1.343       .  D
C3002      H3010   1.084       .  S
C3003      H3011   1.087       .  S
C3003      C3004   1.344       .  D
C3004      H3012   1.083       .  S
C3013      C3021   1.492       .  S
C3013      C3014   1.405       .  A
C3013      C3018   1.407       .  A
C3014      C3015   1.403       .  A
C3014      H3023   1.083       .  S
C3015      C3016   1.410       .  A
C3015      H3024   1.080       .  S
C3016      C3019   1.491       .  S
C3016      C3017   1.404       .  A
C3017      C3018   1.396       .  A
C3017      H3025   1.083       .  S
C3018      H3026   1.081       .  S
C3019      H3027   1.087       .  S
C3019      C3020   1.348       .  D
C3020      H3028   1.082       .  S
C3021      H3029   1.086       .  S
C3021      C3022   1.347       .  D
C3022      H3030   1.083       .  S
C3031      C3039   1.485       .  S
C3031      C3032   1.402       .  A
C3031      C3036   1.408       .  A
C3032      C3033   1.397       .  A
C3032      H3041   1.083       .  S
C3033      C3034   1.409       .  A
C3033      H3042   1.081       .  S
C3034      C3037   1.488       .  S
C3034      C3035   1.404       .  A
C3035      C3036   1.399       .  A
C3035      H3043   1.083       .  S
C3036      H3044   1.081       .  S
C3037      H3045   1.087       .  S
C3037      C3038   1.345       .  D
C3038      H3046   1.084       .  S
C3039      H3047   1.087       .  S
C3039      C3040   1.344       .  D
C3040      H3048   1.084       .  S
C3049      C3057   1.492       .  S
C3049      C3050   1.403       .  A
C3049      C3054   1.409       .  A
C3050      C3051   1.398       .  A
C3050      H3059   1.083       .  S
C3051      C3052   1.409       .  A
C3051      H3060   1.079       .  S
C3052      C3055   1.492       .  S
C3052      C3053   1.405       .  A
C3053      C3054   1.399       .  A
C3053      H3061   1.083       .  S
C3054      H3062   1.080       .  S
C3055      H3063   1.087       .  S
C3055      C3056   1.347       .  D
C3056      H3064   1.082       .  S
C3057      H3065   1.087       .  S
C3057      C3058   1.345       .  D
C3058      H3066   1.083       .  S
C3067      C3075   1.486       .  S
C3067      C3068   1.405       .  A
C3067      C3072   1.406       .  A
C3068      C3069   1.401   1_554  A
C3068      H3077   1.083       .  S
C3069      C3070   1.407       .  A
C3069      H3078   1.082       .  S
C3070      C3073   1.485       .  S
C3070      C3071   1.403       .  A
C3071      C3072   1.397   1_556  A
C3071      H3079   1.083       .  S
C3072      H3080   1.082       .  S
C3073      H3081   1.087       .  S
C3073      C3074   1.346       .  D
C3074      H3082   1.085       .  S
C3075      H3083   1.087       .  S
C3075      C3076   1.346       .  D
C3076      H3084   1.085       .  S
C3085      C3093   1.491       .  S
C3085      C3086   1.404       .  A
C3085      C3090   1.407       .  A
C3086      C3087   1.400       .  A
C3086      H3095   1.083       .  S
C3087      C3088   1.409       .  A
C3087      H3096   1.081       .  S
C3088      C3091   1.493       .  S
C3088      C3089   1.405       .  A
C3089      C3090   1.401       .  A
C3089      H3097   1.083       .  S
C3090      H3098   1.082       .  S
C3091      H3099   1.086       .  S
C3091      C3092   1.347       .  D
C3092      H3100   1.084       .  S
C3093      H3101   1.087       .  S
C3093      C3094   1.348       .  D
C3094      H3102   1.084       .  S
C3103      C3111   1.493       .  S
C3103      C3104   1.404       .  A
C3103      C3108   1.409       .  A
C3104      C3105   1.400       .  A
C3104      H3113   1.083       .  S
C3105      C3106   1.408       .  A
C3105      H3114   1.081       .  S
C3106      C3109   1.494       .  S
C3106      C3107   1.406       .  A
C3107      C3108   1.404       .  A
C3107      H3115   1.082       .  S
C3108      H3116   1.082       .  S
C3109      H3117   1.087       .  S
C3109      C3110   1.348       .  D
C3110      H3118   1.084       .  S
C3111      H3119   1.087       .  S
C3111      C3112   1.348       .  D
C3112      H3120   1.085       .  S
C3121      C3129   1.486       .  S
C3121      C3122   1.403       .  A
C3121      C3126   1.409       .  A
C3122      C3123   1.394   1_554  A
C3122      H3131   1.083       .  S
C3123      C3124   1.406       .  A
C3123      H3132   1.081       .  S
C3124      C3127   1.484       .  S
C3124      C3125   1.403       .  A
C3125      C3126   1.399   1_556  A
C3125      H3133   1.082       .  S
C3126      H3134   1.079       .  S
C3127      H3135   1.087       .  S
C3127      C3128   1.344       .  D
C3128      H3136   1.084       .  S
C3129      H3137   1.087       .  S
C3129      C3130   1.344       .  D
C3130      H3138   1.081       .  S
C3139      C3147   1.492       .  S
C3139      C3140   1.404       .  A
C3139      C3144   1.409       .  A
C3140      C3141   1.399       .  A
C3140      H3149   1.082       .  S
C3141      C3142   1.406       .  A
C3141      H3150   1.082       .  S
C3142      C3145   1.491       .  S
C3142      C3143   1.405       .  A
C3143      C3144   1.403       .  A
C3143      H3151   1.083       .  S
C3144      H3152   1.082       .  S
C3145      H3153   1.087       .  S
C3145      C3146   1.348       .  D
C3146      H3154   1.085       .  S
C3147      H3155   1.087       .  S
C3147      C3148   1.348       .  D
C3148      H3156   1.085       .  S
C3157      C3165   1.488       .  S
C3157      C3158   1.405       .  A
C3157      C3162   1.408       .  A
C3158      C3159   1.400       .  A
C3158      H3167   1.083       .  S
C3159      C3160   1.406       .  A
C3159      H3168   1.082       .  S
C3160      C3163   1.483       .  S
C3160      C3161   1.403       .  A
C3161      C3162   1.397       .  A
C3161      H3169   1.083       .  S
C3162      H3170   1.080       .  S
C3163      H3171   1.087       .  S
C3163      C3164   1.346       .  D
C3164      H3172   1.085       .  S
C3165      H3173   1.087       .  S
C3165      C3166   1.347       .  D
C3166      H3174   1.083       .  S
C3175      C3183   1.486       .  S
C3175      C3176   1.404       .  A
C3175      C3180   1.407       .  A
C3176      C3177   1.399       .  A
C3176      H3185   1.083       .  S
C3177      C3178   1.407       .  A
C3177      H3186   1.082       .  S
C3178      C3181   1.487       .  S
C3178      C3179   1.404       .  A
C3179      C3180   1.399       .  A
C3179      H3187   1.083       .  S
C3180      H3188   1.082       .  S
C3181      H3189   1.087       .  S
C3181      C3182   1.347       .  D
C3182      H3190   1.085       .  S
C3183      H3191   1.087       .  S
C3183      C3184   1.346       .  D
C3184      H3192   1.084       .  S
C3193      C3201   1.490       .  S
C3193      C3194   1.405       .  A
C3193      C3198   1.407       .  A
C3194      C3195   1.402   1_554  A
C3194      H3203   1.083       .  S
C3195      C3196   1.408       .  A
C3195      H3204   1.083       .  S
C3196      C3199   1.488       .  S
C3196      C3197   1.403       .  A
C3197      C3198   1.399   1_556  A
C3197      H3205   1.083       .  S
C3198      H3206   1.082       .  S
C3199      H3207   1.087       .  S
C3199      C3200   1.346       .  D
C3200      H3208   1.086       .  S
C3201      H3209   1.087       .  S
C3201      C3202   1.347       .  D
C3202      H3210   1.085       .  S
C3211      C3219   1.489       .  S
C3211      C3212   1.403       .  A
C3211      C3216   1.410       .  A
C3212      C3213   1.397       .  A
C3212      H3221   1.083       .  S
C3213      C3214   1.407       .  A
C3213      H3222   1.082       .  S
C3214      C3217   1.488       .  S
C3214      C3215   1.403       .  A
C3215      C3216   1.403       .  A
C3215      H3223   1.083       .  S
C3216      H3224   1.081       .  S
C3217      H3225   1.086       .  S
C3217      C3218   1.344       .  D
C3218      H3226   1.085       .  S
C3219      H3227   1.087       .  S
C3219      C3220   1.346       .  D
C3220      H3228   1.084       .  S
C3229      C3237   1.487       .  S
C3229      C3230   1.402       .  A
C3229      C3234   1.409       .  A
C3230      C3231   1.397       .  A
C3230      H3239   1.083       .  S
C3231      C3232   1.409   1_554  A
C3231      H3240   1.080   1_554  S
C3232      C3235   1.486       .  S
C3232      C3233   1.402   1_556  A
C3233      C3234   1.397       .  A
C3233      H3241   1.083       .  S
C3234      H3242   1.081       .  S
C3235      H3243   1.087       .  S
C3235      C3236   1.344       .  D
C3236      H3244   1.083       .  S
C3237      H3245   1.088       .  S
C3237      C3238   1.342       .  D
C3238      H3246   1.084       .  S
C3247      C3255   1.495       .  S
C3247      C3248   1.407       .  A
C3247      C3252   1.409       .  A
C3248      C3249   1.402       .  A
C3248      H3257   1.083       .  S
C3249      C3250   1.406       .  A
C3249      H3258   1.082       .  S
C3250      C3253   1.489       .  S
C3250      C3251   1.404       .  A
C3251      C3252   1.400       .  A
C3251      H3259   1.083       .  S
C3252      H3260   1.080       .  S
C3253      H3261   1.087       .  S
C3253      C3254   1.349       .  D
C3254      H3262   1.085       .  S
C3255      H3263   1.087       .  S
C3255      C3256   1.349       .  D
C3256      H3264   1.083       .  S
C3265      C3273   1.494       .  S
C3265      C3266   1.405       .  A
C3265      C3270   1.409       .  A
C3266      C3267   1.405       .  A
C3266      H3275   1.083       .  S
C3267      C3268   1.409       .  A
C3267      H3276   1.081       .  S
C3268      C3271   1.494       .  S
C3268      C3269   1.404       .  A
C3269      C3270   1.398       .  A
C3269      H3277   1.083       .  S
C3270      H3278   1.081       .  S
C3271      H3279   1.087       .  S
C3271      C3272   1.349       .  D
C3272      H3280   1.084       .  S
C3273      H3281   1.087       .  S
C3273      C3274   1.346       .  D
C3274      H3282   1.085       .  S
C3283      C3291   1.480       .  S
C3283      C3284   1.400       .  A
C3283      C3288   1.406       .  A
C3284      C3285   1.395       .  A
C3284      H3293   1.083       .  S
C3285      C3286   1.409       .  A
C3285      H3294   1.079       .  S
C3286      C3289   1.489       .  S
C3286      C3287   1.405       .  A
C3287      C3288   1.398       .  A
C3287      H3295   1.083       .  S
C3288      H3296   1.083       .  S
C3289      H3297   1.088       .  S
C3289      C3290   1.346       .  D
C3290      H3298   1.081       .  S
C3291      H3299   1.087       .  S
C3291      C3292   1.342       .  D
C3292      H3300   1.085       .  S
C3301      C3309   1.489       .  S
C3301      C3302   1.402       .  A
C3301      C3306   1.408       .  A
C3302      C3303   1.395       .  A
C3302      H3311   1.084       .  S
C3303      C3304   1.408       .  A
C3303      H3312   1.081       .  S
C3304      C3307   1.497       .  S
C3304      C3305   1.408       .  A
C3305      C3306   1.408       .  A
C3305      H3313   1.083       .  S
C3306      H3314   1.082       .  S
C3307      H3315   1.086       .  S
C3307      C3308   1.348       .  D
C3308      H3316   1.084       .  S
C3309      H3317   1.088       .  S
C3309      C3310   1.349       .  D
C3310      H3318   1.085       .  S
C3319      C3327   1.486       .  S
C3319      C3320   1.403       .  A
C3319      C3324   1.406       .  A
C3320      C3321   1.400       .  A
C3320      H3329   1.083       .  S
C3321      C3322   1.410       .  A
C3321      H3330   1.080       .  S
C3322      C3325   1.489       .  S
C3322      C3323   1.404       .  A
C3323      C3324   1.396       .  A
C3323      H3331   1.083       .  S
C3324      H3332   1.082       .  S
C3325      H3333   1.088       .  S
C3325      C3326   1.345       .  D
C3326      H3334   1.083       .  S
C3327      H3335   1.087       .  S
C3327      C3328   1.344       .  D
C3328      H3336   1.085       .  S
C3337      C3345   1.493       .  S
C3337      C3338   1.406       .  A
C3337      C3342   1.406       .  A
C3338      C3339   1.405       .  A
C3338      H3347   1.083       .  S
C3339      C3340   1.409       .  A
C3339      H3348   1.080       .  S
C3340      C3343   1.492       .  S
C3340      C3341   1.404       .  A
C3341      C3342   1.396       .  A
C3341      H3349   1.083       .  S
C3342      H3350   1.082       .  S
C3343      H3351   1.087       .  S
C3343      C3344   1.349       .  D
C3344      H3352   1.083       .  S
C3345      H3353   1.087       .  S
C3345      C3346   1.347       .  D
C3346      H3354   1.085       .  S
C3355      C3363   1.491       .  S
C3355      C3356   1.406       .  A
C3355      C3360   1.408       .  A
C3356      C3357   1.399   1_554  A
C3356      H3365   1.083       .  S
C3357      C3358   1.407       .  A
C3357      H3366   1.082       .  S
C3358      C3361   1.489       .  S
C3358      C3359   1.404       .  A
C3359      C3360   1.400   1_556  A
C3359      H3367   1.083       .  S
C3360      H3368   1.081       .  S
C3361      H3369   1.087       .  S
C3361      C3362   1.346       .  D
C3362      H3370   1.085       .  S
C3363      H3371   1.087       .  S
C3363      C3364   1.349       .  D
C3364      H3372   1.083       .  S
C3373      C3381   1.493       .  S
C3373      C3374   1.404       .  A
C3373      C3378   1.409       .  A
C3374      C3375   1.400       .  A
C3374      H3383   1.083       .  S
C3375      C3376   1.407       .  A
C3375      H3384   1.082       .  S
C3376      C3379   1.491       .  S
C3376      C3377   1.404       .  A
C3377      C3378   1.402       .  A
C3377      H3385   1.083       .  S
C3378      H3386   1.081       .  S
C3379      H3387   1.087       .  S
C3379      C3380   1.348       .  D
C3380      H3388   1.085       .  S
C3381      H3389   1.088       .  S
C3381      C3382   1.347       .  D
C3382      H3390   1.085       .  S
C3391      C3399   1.487       .  S
C3391      C3392   1.405       .  A
C3391      C3396   1.407       .  A
C3392      C3393   1.402   1_554  A
C3392      H3401   1.083       .  S
C3393      C3394   1.406       .  A
C3393      H3402   1.083       .  S
C3394      C3397   1.485       .  S
C3394      C3395   1.403   1_556  A
C3395      C3396   1.399       .  A
C3395      H3403   1.083   1_554  S
C3396      H3404   1.083       .  S
C3397      H3405   1.087       .  S
C3397      C3398   1.346       .  D
C3398      H3406   1.086       .  S
C3399      H3407   1.088       .  S
C3399      C3400   1.347       .  D
C3400      H3408   1.086       .  S
C3409      C3417   1.486       .  S
C3409      C3410   1.403       .  A
C3409      C3414   1.408       .  A
C3410      C3411   1.398       .  A
C3410      H3419   1.083       .  S
C3411      C3412   1.408       .  A
C3411      H3420   1.081       .  S
C3412      C3415   1.487       .  S
C3412      C3413   1.403       .  A
C3413      C3414   1.400       .  A
C3413      H3421   1.083       .  S
C3414      H3422   1.082       .  S
C3415      H3423   1.087       .  S
C3415      C3416   1.345       .  D
C3416      H3424   1.086       .  S
C3417      H3425   1.087       .  S
C3417      C3418   1.345       .  D
C3418      H3426   1.085       .  S
C3427      C3435   1.487       .  S
C3427      C3428   1.403       .  A
C3427      C3432   1.410       .  A
C3428      C3429   1.394       .  A
C3428      H3437   1.083       .  S
C3429      C3430   1.405       .  A
C3429      H3438   1.082       .  S
C3430      C3433   1.484       .  S
C3430      C3431   1.403       .  A
C3431      C3432   1.401       .  A
C3431      H3439   1.083       .  S
C3432      H3440   1.080       .  S
C3433      H3441   1.087       .  S
C3433      C3434   1.345       .  D
C3434      H3442   1.085       .  S
C3435      H3443   1.087       .  S
C3435      C3436   1.344       .  D
C3436      H3444   1.082       .  S
C3445      C3453   1.488       .  S
C3445      C3446   1.404       .  A
C3445      C3450   1.407       .  A
C3446      C3447   1.400       .  A
C3446      H3455   1.083       .  S
C3447      C3448   1.409       .  A
C3447      H3456   1.080       .  S
C3448      C3451   1.489       .  S
C3448      C3449   1.404       .  A
C3449      C3450   1.397       .  A
C3449      H3457   1.083       .  S
C3450      H3458   1.081       .  S
C3451      H3459   1.087       .  S
C3451      C3452   1.346       .  D
C3452      H3460   1.084       .  S
C3453      H3461   1.087       .  S
C3453      C3454   1.345       .  D
C3454      H3462   1.085       .  S
C3463      C3471   1.493       .  S
C3463      C3464   1.406       .  A
C3463      C3468   1.408       .  A
C3464      C3465   1.404   1_554  A
C3464      H3473   1.082       .  S
C3465      C3466   1.408       .  A
C3465      H3474   1.082       .  S
C3466      C3469   1.491       .  S
C3466      C3467   1.404       .  A
C3467      C3468   1.398   1_556  A
C3467      H3475   1.082       .  S
C3468      H3476   1.082       .  S
C3469      H3477   1.087       .  S
C3469      C3470   1.349       .  D
C3470      H3478   1.084       .  S
C3471      H3479   1.087       .  S
C3471      C3472   1.347       .  D
C3472      H3480   1.084       .  S
C3481      C3489   1.483       .  S
C3481      C3482   1.401       .  A
C3481      C3486   1.407       .  A
C3482      C3483   1.397       .  A
C3482      H3491   1.083       .  S
C3483      C3484   1.407       .  A
C3483      H3492   1.082       .  S
C3484      C3487   1.487       .  S
C3484      C3485   1.404       .  A
C3485      C3486   1.402       .  A
C3485      H3493   1.082       .  S
C3486      H3494   1.082       .  S
C3487      H3495   1.086       .  S
C3487      C3488   1.345       .  D
C3488      H3496   1.086       .  S
C3489      H3497   1.087       .  S
C3489      C3490   1.344       .  D
C3490      H3498   1.085       .  S
C3499      C3507   1.482       .  S
C3499      C3500   1.402       .  A
C3499      C3504   1.407       .  A
C3500      C3501   1.396   1_554  A
C3500      H3509   1.084       .  S
C3501      C3502   1.406       .  A
C3501      H3510   1.082       .  S
C3502      C3505   1.482       .  S
C3502      C3503   1.403       .  A
C3503      C3504   1.399   1_556  A
C3503      H3511   1.083       .  S
C3504      H3512   1.083       .  S
C3505      H3513   1.086       .  S
C3505      C3506   1.344       .  D
C3506      H3514   1.085       .  S
C3507      H3515   1.088       .  S
C3507      C3508   1.345       .  D
C3508      H3516   1.085       .  S
C3517      C3525   1.491       .  S
C3517      C3518   1.405       .  A
C3517      C3522   1.408       .  A
C3518      C3519   1.404       .  A
C3518      H3527   1.083       .  S
C3519      C3520   1.408       .  A
C3519      H3528   1.082       .  S
C3520      C3523   1.488       .  S
C3520      C3521   1.403       .  A
C3521      C3522   1.396       .  A
C3521      H3529   1.084       .  S
C3522      H3530   1.082       .  S
C3523      H3531   1.088       .  S
C3523      C3524   1.348       .  D
C3524      H3532   1.085       .  S
C3525      H3533   1.087       .  S
C3525      C3526   1.345       .  D
C3526      H3534   1.086       .  S
C3535      C3543   1.488       .  S
C3535      C3536   1.404       .  A
C3535      C3540   1.408       .  A
C3536      C3537   1.399       .  A
C3536      H3545   1.083       .  S
C3537      C3538   1.408       .  A
C3537      H3546   1.082       .  S
C3538      C3541   1.487       .  S
C3538      C3539   1.403       .  A
C3539      C3540   1.398       .  A
C3539      H3547   1.083       .  S
C3540      H3548   1.081       .  S
C3541      H3549   1.087       .  S
C3541      C3542   1.345       .  D
C3542      H3550   1.085       .  S
C3543      H3551   1.087       .  S
C3543      C3544   1.346       .  D
C3544      H3552   1.085       .  S
C3553      C3561   1.485       .  S
C3553      C3554   1.403       .  A
C3553      C3558   1.407       .  A
C3554      C3555   1.396       .  A
C3554      H3563   1.083       .  S
C3555      C3556   1.407       .  A
C3555      H3564   1.081       .  S
C3556      C3559   1.488       .  S
C3556      C3557   1.405       .  A
C3557      C3558   1.401       .  A
C3557      H3565   1.083       .  S
C3558      H3566   1.082       .  S
C3559      H3567   1.088       .  S
C3559      C3560   1.346       .  D
C3560      H3568   1.085       .  S
C3561      H3569   1.087       .  S
C3561      C3562   1.347       .  D
C3562      H3570   1.084       .  S
C3571      C3579   1.487       .  S
C3571      C3572   1.404       .  A
C3571      C3576   1.407       .  A
C3572      C3573   1.399       .  A
C3572      H3581   1.083       .  S
C3573      C3574   1.407       .  A
C3573      H3582   1.082       .  S
C3574      C3577   1.485       .  S
C3574      C3575   1.403       .  A
C3575      C3576   1.397       .  A
C3575      H3583   1.082       .  S
C3576      H3584   1.082       .  S
C3577      H3585   1.087       .  S
C3577      C3578   1.346       .  D
C3578      H3586   1.084       .  S
C3579      H3587   1.087       .  S
C3579      C3580   1.347       .  D
C3580      H3588   1.085       .  S
C3589      C3597   1.495       .  S
C3589      C3590   1.404       .  A
C3589      C3594   1.410       .  A
C3590      C3591   1.400       .  A
C3590      H3599   1.083       .  S
C3591      C3592   1.407       .  A
C3591      H3600   1.082       .  S
C3592      C3595   1.492       .  S
C3592      C3593   1.405       .  A
C3593      C3594   1.404       .  A
C3593      H3601   1.083       .  S
C3594      H3602   1.081       .  S
C3595      H3603   1.087       .  S
C3595      C3596   1.348       .  D
C3596      H3604   1.086       .  S
C3597      H3605   1.088       .  S
C3597      C3598   1.347       .  D
C3598      H3606   1.085       .  S
C3607      C3615   1.493       .  S
C3607      C3608   1.406       .  A
C3607      C3612   1.407       .  A
C3608      C3609   1.402       .  A
C3608      H3617   1.083       .  S
C3609      C3610   1.409       .  A
C3609      H3618   1.081       .  S
C3610      C3613   1.493       .  S
C3610      C3611   1.404       .  A
C3611      C3612   1.400       .  A
C3611      H3619   1.083       .  S
C3612      H3620   1.081       .  S
C3613      H3621   1.087       .  S
C3613      C3614   1.347       .  D
C3614      H3622   1.084       .  S
C3615      H3623   1.087       .  S
C3615      C3616   1.350       .  D
C3616      H3624   1.084       .  S
C3625      C3633   1.488       .  S
C3625      C3626   1.402       .  A
C3625      C3630   1.409       .  A
C3626      C3627   1.397   1_554  A
C3626      H3635   1.083       .  S
C3627      C3628   1.410       .  A
C3627      H3636   1.079       .  S
C3628      C3631   1.493       .  S
C3628      C3629   1.405       .  A
C3629      C3630   1.400   1_556  A
C3629      H3637   1.083       .  S
C3630      H3638   1.081       .  S
C3631      H3639   1.088       .  S
C3631      C3632   1.346       .  D
C3632      H3640   1.082       .  S
C3633      H3641   1.087       .  S
C3633      C3634   1.345       .  D
C3634      H3642   1.083       .  S
C3643      C3651   1.489       .  S
C3643      C3644   1.404       .  A
C3643      C3648   1.407       .  A
C3644      C3645   1.400       .  A
C3644      H3653   1.083       .  S
C3645      C3646   1.407       .  A
C3645      H3654   1.082       .  S
C3646      C3649   1.490       .  S
C3646      C3647   1.405       .  A
C3647      C3648   1.402       .  A
C3647      H3655   1.083       .  S
C3648      H3656   1.082       .  S
C3649      H3657   1.087       .  S
C3649      C3650   1.348       .  D
C3650      H3658   1.086       .  S
C3651      H3659   1.087       .  S
C3651      C3652   1.347       .  D
C3652      H3660   1.085       .  S
C3661      C3669   1.494       .  S
C3661      C3662   1.404       .  A
C3661      C3666   1.409       .  A
C3662      C3663   1.400       .  A
C3662      H3671   1.083       .  S
C3663      C3664   1.410       .  A
C3663      H3672   1.080       .  S
C3664      C3667   1.495       .  S
C3664      C3665   1.405       .  A
C3665      C3666   1.401       .  A
C3665      H3673   1.083       .  S
C3666      H3674   1.081       .  S
C3667      H3675   1.087       .  S
C3667      C3668   1.348       .  D
C3668      H3676   1.082       .  S
C3669      H3677   1.086       .  S
C3669      C3670   1.348       .  D
C3670      H3678   1.083       .  S
C3679      C3687   1.496       .  S
C3679      C3680   1.405       .  A
C3679      C3684   1.409       .  A
C3680      C3681   1.401       .  A
C3680      H3689   1.083       .  S
C3681      C3682   1.410       .  A
C3681      H3690   1.080       .  S
C3682      C3685   1.498       .  S
C3682      C3683   1.406       .  A
C3683      C3684   1.401       .  A
C3683      H3691   1.083       .  S
C3684      H3692   1.081       .  S
C3685      H3693   1.087       .  S
C3685      C3686   1.349       .  D
C3686      H3694   1.082       .  S
C3687      H3695   1.086       .  S
C3687      C3688   1.348       .  D
C3688      H3696   1.083       .  S
C3697      C3705   1.487       .  S
C3697      C3698   1.404       .  A
C3697      C3702   1.408       .  A
C3698      C3699   1.397   1_655  A
C3698      H3707   1.083       .  S
C3699      C3700   1.407       .  A
C3699      H3708   1.082       .  S
C3700      C3703   1.485       .  S
C3700      C3701   1.403       .  A
C3701      C3702   1.400   1_455  A
C3701      H3709   1.083       .  S
C3702      H3710   1.081       .  S
C3703      H3711   1.087       .  S
C3703      C3704   1.345       .  D
C3704      H3712   1.085       .  S
C3705      H3713   1.087       .  S
C3705      C3706   1.346       .  D
C3706      H3714   1.084       .  S
C3715      C3723   1.488       .  S
C3715      C3716   1.405       .  A
C3715      C3720   1.407       .  A
C3716      C3717   1.403       .  A
C3716      H3725   1.083       .  S
C3717      C3718   1.408       .  A
C3717      H3726   1.082       .  S
C3718      C3721   1.487       .  S
C3718      C3719   1.403       .  A
C3719      C3720   1.397       .  A
C3719      H3727   1.083       .  S
C3720      H3728   1.082       .  S
C3721      H3729   1.087       .  S
C3721      C3722   1.348       .  D
C3722      H3730   1.085       .  S
C3723      H3731   1.087       .  S
C3723      C3724   1.345       .  D
C3724      H3732   1.085       .  S
C3733      C3741   1.490       .  S
C3733      C3734   1.404       .  A
C3733      C3738   1.407       .  A
C3734      C3735   1.402       .  A
C3734      H3743   1.082       .  S
C3735      C3736   1.409       .  A
C3735      H3744   1.082       .  S
C3736      C3739   1.493       .  S
C3736      C3737   1.404       .  A
C3737      C3738   1.400       .  A
C3737      H3745   1.083       .  S
C3738      H3746   1.082       .  S
C3739      H3747   1.087       .  S
C3739      C3740   1.346       .  D
C3740      H3748   1.085       .  S
C3741      H3749   1.086       .  S
C3741      C3742   1.347       .  D
C3742      H3750   1.084       .  S
C3751      C3759   1.488       .  S
C3751      C3752   1.405       .  A
C3751      C3756   1.406       .  A
C3752      C3753   1.404       .  A
C3752      H3761   1.082       .  S
C3753      C3754   1.408       .  A
C3753      H3762   1.082       .  S
C3754      C3757   1.487       .  S
C3754      C3755   1.403       .  A
C3755      C3756   1.397       .  A
C3755      H3763   1.083       .  S
C3756      H3764   1.082       .  S
C3757      H3765   1.087       .  S
C3757      C3758   1.348       .  D
C3758      H3766   1.085       .  S
C3759      H3767   1.087       .  S
C3759      C3760   1.347       .  D
C3760      H3768   1.085       .  S
C3769      C3777   1.484       .  S
C3769      C3770   1.402       .  A
C3769      C3774   1.407       .  A
C3770      C3771   1.396   1_655  A
C3770      H3779   1.083       .  S
C3771      C3772   1.407       .  A
C3771      H3780   1.081       .  S
C3772      C3775   1.483       .  S
C3772      C3773   1.403       .  A
C3773      C3774   1.397   1_455  A
C3773      H3781   1.084       .  S
C3774      H3782   1.081       .  S
C3775      H3783   1.088       .  S
C3775      C3776   1.344       .  D
C3776      H3784   1.084       .  S
C3777      H3785   1.087       .  S
C3777      C3778   1.343       .  D
C3778      H3786   1.084       .  S
C3787      C3795   1.492       .  S
C3787      C3788   1.405       .  A
C3787      C3792   1.407       .  A
C3788      C3789   1.403       .  A
C3788      H3797   1.083       .  S
C3789      C3790   1.408       .  A
C3789      H3798   1.082       .  S
C3790      C3793   1.493       .  S
C3790      C3791   1.405       .  A
C3791      C3792   1.402       .  A
C3791      H3799   1.083       .  S
C3792      H3800   1.081       .  S
C3793      H3801   1.087       .  S
C3793      C3794   1.349       .  D
C3794      H3802   1.085       .  S
C3795      H3803   1.087       .  S
C3795      C3796   1.349       .  D
C3796      H3804   1.085       .  S
C3805      C3813   1.496       .  S
C3805      C3806   1.406       .  A
C3805      C3810   1.408       .  A
C3806      C3807   1.403       .  A
C3806      H3815   1.083       .  S
C3807      C3808   1.408       .  A
C3807      H3816   1.082       .  S
C3808      C3811   1.494       .  S
C3808      C3809   1.405       .  A
C3809      C3810   1.402       .  A
C3809      H3817   1.083       .  S
C3810      H3818   1.081       .  S
C3811      H3819   1.087       .  S
C3811      C3812   1.348       .  D
C3812      H3820   1.084       .  S
C3813      H3821   1.087       .  S
C3813      C3814   1.350       .  D
C3814      H3822   1.085       .  S
C3823      C3831   1.495       .  S
C3823      C3824   1.405       .  A
C3823      C3828   1.409       .  A
C3824      C3825   1.402       .  A
C3824      H3833   1.083       .  S
C3825      C3826   1.409       .  A
C3825      H3834   1.080       .  S
C3826      C3829   1.495       .  S
C3826      C3827   1.405       .  A
C3827      C3828   1.402       .  A
C3827      H3835   1.083       .  S
C3828      H3836   1.081       .  S
C3829      H3837   1.087       .  S
C3829      C3830   1.350       .  D
C3830      H3838   1.083       .  S
C3831      H3839   1.087       .  S
C3831      C3832   1.348       .  D
C3832      H3840   1.085       .  S
C3841      C3849   1.498       .  S
C3841      C3842   1.408       .  A
C3841      C3846   1.410       .  A
C3842      C3843   1.404       .  A
C3842      H3851   1.083       .  S
C3843      C3844   1.406       .  A
C3843      H3852   1.082       .  S
C3844      C3847   1.485       .  S
C3844      C3845   1.401       .  A
C3845      C3846   1.397       .  A
C3845      H3853   1.082       .  S
C3846      H3854   1.082       .  S
C3847      H3855   1.087       .  S
C3847      C3848   1.345       .  D
C3848      H3856   1.086       .  S
C3849      H3857   1.088       .  S
C3849      C3850   1.349       .  D
C3850      H3858   1.084       .  S
C3859      C3867   1.496       .  S
C3859      C3860   1.404       .  A
C3859      C3864   1.409       .  A
C3860      C3861   1.400       .  A
C3860      H3869   1.083       .  S
C3861      C3862   1.411       .  A
C3861      H3870   1.079       .  S
C3862      C3865   1.498       .  S
C3862      C3863   1.405       .  A
C3863      C3864   1.401       .  A
C3863      H3871   1.083       .  S
C3864      H3872   1.081       .  S
C3865      H3873   1.087       .  S
C3865      C3866   1.347       .  D
C3866      H3874   1.081       .  S
C3867      H3875   1.087       .  S
C3867      C3868   1.347       .  D
C3868      H3876   1.083       .  S
C3877      C3885   1.488       .  S
C3877      C3878   1.403       .  A
C3877      C3882   1.407       .  A
C3878      C3879   1.400   1_455  A
C3878      H3887   1.082       .  S
C3879      C3880   1.408       .  A
C3879      H3888   1.082       .  S
C3880      C3883   1.491       .  S
C3880      C3881   1.406       .  A
C3881      C3882   1.403   1_655  A
C3881      H3889   1.083       .  S
C3882      H3890   1.082       .  S
C3883      H3891   1.087       .  S
C3883      C3884   1.348       .  D
C3884      H3892   1.086       .  S
C3885      H3893   1.087       .  S
C3885      C3886   1.347       .  D
C3886      H3894   1.086       .  S
C3895      C3903   1.497       .  S
C3895      C3896   1.406       .  A
C3895      C3900   1.408       .  A
C3896      C3897   1.405       .  A
C3896      H3905   1.083       .  S
C3897      C3898   1.410       .  A
C3897      H3906   1.081       .  S
C3898      C3901   1.498       .  S
C3898      C3899   1.406       .  A
C3899      C3900   1.401       .  A
C3899      H3907   1.083       .  S
C3900      H3908   1.081       .  S
C3901      H3909   1.088       .  S
C3901      C3902   1.351       .  D
C3902      H3910   1.084       .  S
C3903      H3911   1.087       .  S
C3903      C3904   1.349       .  D
C3904      H3912   1.085       .  S
C3913      C3921   1.491       .  S
C3913      C3914   1.404       .  A
C3913      C3918   1.407       .  A
C3914      C3915   1.402       .  A
C3914      H3923   1.082       .  S
C3915      C3916   1.409       .  A
C3915      H3924   1.081       .  S
C3916      C3919   1.495       .  S
C3916      C3917   1.406       .  A
C3917      C3918   1.401       .  A
C3917      H3925   1.083       .  S
C3918      H3926   1.082       .  S
C3919      H3927   1.087       .  S
C3919      C3920   1.350       .  D
C3920      H3928   1.084       .  S
C3921      H3929   1.087       .  S
C3921      C3922   1.348       .  D
C3922      H3930   1.085       .  S
C3931      C3939   1.487       .  S
C3931      C3932   1.402       .  A
C3931      C3936   1.408       .  A
C3932      C3933   1.397       .  A
C3932      H3941   1.083       .  S
C3933      C3934   1.408       .  A
C3933      H3942   1.082       .  S
C3934      C3937   1.488       .  S
C3934      C3935   1.404       .  A
C3935      C3936   1.401       .  A
C3935      H3943   1.083       .  S
C3936      H3944   1.082       .  S
C3937      H3945   1.087       .  S
C3937      C3938   1.346       .  D
C3938      H3946   1.085       .  S
C3939      H3947   1.087       .  S
C3939      C3940   1.345       .  D
C3940      H3948   1.085       .  S
C3949      C3957   1.496       .  S
C3949      C3950   1.406       .  A
C3949      C3954   1.408       .  A
C3950      C3951   1.402       .  A
C3950      H3959   1.083       .  S
C3951      C3952   1.408       .  A
C3951      H3960   1.081       .  S
C3952      C3955   1.495       .  S
C3952      C3953   1.406       .  A
C3953      C3954   1.403       .  A
C3953      H3961   1.082       .  S
C3954      H3962   1.081       .  S
C3955      H3963   1.087       .  S
C3955      C3956   1.349       .  D
C3956      H3964   1.085       .  S
C3957      H3965   1.087       .  S
C3957      C3958   1.350       .  D
C3958      H3966   1.085       .  S
C3967      C3975   1.493       .  S
C3967      C3968   1.404       .  A
C3967      C3972   1.410       .  A
C3968      C3969   1.396       .  A
C3968      H3977   1.083       .  S
C3969      C3970   1.407       .  A
C3969      H3978   1.081       .  S
C3970      C3973   1.494       .  S
C3970      C3971   1.406       .  A
C3971      C3972   1.404       .  A
C3971      H3979   1.083       .  S
C3972      H3980   1.079       .  S
C3973      H3981   1.086       .  S
C3973      C3974   1.347       .  D
C3974      H3982   1.083       .  S
C3975      H3983   1.086       .  S
C3975      C3976   1.348       .  D
C3976      H3984   1.082       .  S
C3985      C3993   1.489       .  S
C3985      C3986   1.405       .  A
C3985      C3990   1.408       .  A
C3986      C3987   1.399       .  A
C3986      H3995   1.083       .  S
C3987      C3988   1.407       .  A
C3987      H3996   1.081       .  S
C3988      C3991   1.485       .  S
C3988      C3989   1.402       .  A
C3989      C3990   1.396       .  A
C3989      H3997   1.083       .  S
C3990      H3998   1.080       .  S
C3991      H3999   1.087       .  S
C3991      C3992   1.344       .  D
C3992      H4000   1.085       .  S
C3993      H4001   1.087       .  S
C3993      C3994   1.346       .  D
C3994      H4002   1.083       .  S
C4003      C4011   1.492       .  S
C4003      C4004   1.405       .  A
C4003      C4008   1.409       .  A
C4004      C4005   1.400   1_455  A
C4004      H4013   1.083       .  S
C4005      C4006   1.406       .  A
C4005      H4014   1.083       .  S
C4006      C4009   1.489       .  S
C4006      C4007   1.405       .  A
C4007      C4008   1.403   1_655  A
C4007      H4015   1.083       .  S
C4008      H4016   1.082       .  S
C4009      H4017   1.087       .  S
C4009      C4010   1.347       .  D
C4010      H4018   1.086       .  S
C4011      H4019   1.088       .  S
C4011      C4012   1.348       .  D
C4012      H4020   1.085       .  S
C4021      C4029   1.501       .  S
C4021      C4022   1.406       .  A
C4021      C4026   1.410       .  A
C4022      C4023   1.402       .  A
C4022      H4031   1.083       .  S
C4023      C4024   1.410       .  A
C4023      H4032   1.079       .  S
C4024      C4027   1.503       .  S
C4024      C4025   1.407       .  A
C4025      C4026   1.404       .  A
C4025      H4033   1.083       .  S
C4026      H4034   1.079       .  S
C4027      H4035   1.086       .  S
C4027      C4028   1.351       .  D
C4028      H4036   1.081       .  S
C4029      H4037   1.086       .  S
C4029      C4030   1.350       .  D
C4030      H4038   1.082       .  S
C4039      C4047   1.493       .  S
C4039      C4040   1.404       .  A
C4039      C4044   1.409       .  A
C4040      C4041   1.402       .  A
C4040      H4049   1.083       .  S
C4041      C4042   1.410       .  A
C4041      H4050   1.080       .  S
C4042      C4045   1.495       .  S
C4042      C4043   1.405       .  A
C4043      C4044   1.400       .  A
C4043      H4051   1.083       .  S
C4044      H4052   1.081       .  S
C4045      H4053   1.087       .  S
C4045      C4046   1.349       .  D
C4046      H4054   1.083       .  S
C4047      H4055   1.087       .  S
C4047      C4048   1.346       .  D
C4048      H4056   1.084       .  S
C4057      C4065   1.487       .  S
C4057      C4058   1.404       .  A
C4057      C4062   1.408       .  A
C4058      C4059   1.399       .  A
C4058      H4067   1.083       .  S
C4059      C4060   1.407   1_554  A
C4059      H4068   1.082   1_554  S
C4060      C4063   1.486       .  S
C4060      C4061   1.403   1_556  A
C4061      C4062   1.398       .  A
C4061      H4069   1.083   1_554  S
C4062      H4070   1.082       .  S
C4063      H4071   1.087       .  S
C4063      C4064   1.345       .  D
C4064      H4072   1.085       .  S
C4065      H4073   1.086       .  S
C4065      C4066   1.345       .  D
C4066      H4074   1.084       .  S
C4075      C4083   1.496       .  S
C4075      C4076   1.406       .  A
C4075      C4080   1.410       .  A
C4076      C4077   1.401       .  A
C4076      H4085   1.083       .  S
C4077      C4078   1.407       .  A
C4077      H4086   1.082       .  S
C4078      C4081   1.490       .  S
C4078      C4079   1.403       .  A
C4079      C4080   1.401       .  A
C4079      H4087   1.082       .  S
C4080      H4088   1.080       .  S
C4081      H4089   1.087       .  S
C4081      C4082   1.346       .  D
C4082      H4090   1.085       .  S
C4083      H4091   1.087       .  S
C4083      C4084   1.349       .  D
C4084      H4092   1.083       .  S
C4093      C4101   1.493       .  S
C4093      C4094   1.405       .  A
C4093      C4098   1.408       .  A
C4094      C4095   1.400       .  A
C4094      H4103   1.082       .  S
C4095      C4096   1.409       .  A
C4095      H4104   1.082       .  S
C4096      C4099   1.497       .  S
C4096      C4097   1.406       .  A
C4097      C4098   1.403       .  A
C4097      H4105   1.083       .  S
C4098      H4106   1.081       .  S
C4099      H4107   1.087       .  S
C4099      C4100   1.348       .  D
C4100      H4108   1.084       .  S
C4101      H4109   1.087       .  S
C4101      C4102   1.349       .  D
C4102      H4110   1.084       .  S
C4111      C4119   1.499       .  S
C4111      C4112   1.406       .  A
C4111      C4116   1.410       .  A
C4112      C4113   1.403       .  A
C4112      H4121   1.083       .  S
C4113      C4114   1.407       .  A
C4113      H4122   1.083       .  S
C4114      C4117   1.495       .  S
C4114      C4115   1.405       .  A
C4115      C4116   1.403       .  A
C4115      H4123   1.082       .  S
C4116      H4124   1.081       .  S
C4117      H4125   1.087       .  S
C4117      C4118   1.348       .  D
C4118      H4126   1.085       .  S
C4119      H4127   1.087       .  S
C4119      C4120   1.350       .  D
C4120      H4128   1.085       .  S
C4129      C4137   1.491       .  S
C4129      C4130   1.404       .  A
C4129      C4134   1.409       .  A
C4130      C4131   1.399   1_554  A
C4130      H4139   1.083       .  S
C4131      C4132   1.408       .  A
C4131      H4140   1.081       .  S
C4132      C4135   1.491       .  S
C4132      C4133   1.403       .  A
C4133      C4134   1.400   1_556  A
C4133      H4141   1.083       .  S
C4134      H4142   1.080       .  S
C4135      H4143   1.087       .  S
C4135      C4136   1.346       .  D
C4136      H4144   1.085       .  S
C4137      H4145   1.087       .  S
C4137      C4138   1.347       .  D
C4138      H4146   1.083       .  S
C4147      C4155   1.489       .  S
C4147      C4148   1.404       .  A
C4147      C4152   1.407       .  A
C4148      C4149   1.398       .  A
C4148      H4157   1.083       .  S
C4149      C4150   1.407       .  A
C4149      H4158   1.081       .  S
C4150      C4153   1.489       .  S
C4150      C4151   1.405       .  A
C4151      C4152   1.402       .  A
C4151      H4159   1.083       .  S
C4152      H4160   1.082       .  S
C4153      H4161   1.087       .  S
C4153      C4154   1.348       .  D
C4154      H4162   1.085       .  S
C4155      H4163   1.087       .  S
C4155      C4156   1.346       .  D
C4156      H4164   1.085       .  S
C4165      C4173   1.493       .  S
C4165      C4166   1.405       .  A
C4165      C4170   1.409       .  A
C4166      C4167   1.399       .  A
C4166      H4175   1.083       .  S
C4167      C4168   1.407       .  A
C4167      H4176   1.083       .  S
C4168      C4171   1.487       .  S
C4168      C4169   1.403       .  A
C4169      C4170   1.399       .  A
C4169      H4177   1.083       .  S
C4170      H4178   1.081       .  S
C4171      H4179   1.087       .  S
C4171      C4172   1.345       .  D
C4172      H4180   1.084       .  S
C4173      H4181   1.087       .  S
C4173      C4174   1.347       .  D
C4174      H4182   1.083       .  S
C4183      C4191   1.490       .  S
C4183      C4184   1.406       .  A
C4183      C4188   1.408       .  A
C4184      C4185   1.400       .  A
C4184      H4193   1.082       .  S
C4185      C4186   1.407       .  A
C4185      H4194   1.081       .  S
C4186      C4189   1.489       .  S
C4186      C4187   1.404       .  A
C4187      C4188   1.399       .  A
C4187      H4195   1.083       .  S
C4188      H4196   1.079       .  S
C4189      H4197   1.088       .  S
C4189      C4190   1.347       .  D
C4190      H4198   1.085       .  S
C4191      H4199   1.087       .  S
C4191      C4192   1.349       .  D
C4192      H4200   1.082       .  S
C4201      C4209   1.484       .  S
C4201      C4202   1.403       .  A
C4201      C4206   1.407       .  A
C4202      C4203   1.398       .  A
C4202      H4211   1.083       .  S
C4203      C4204   1.407       .  A
C4203      H4212   1.082       .  S
C4204      C4207   1.487       .  S
C4204      C4205   1.404       .  A
C4205      C4206   1.399       .  A
C4205      H4213   1.083       .  S
C4206      H4214   1.083       .  S
C4207      H4215   1.088       .  S
C4207      C4208   1.345       .  D
C4208      H4216   1.086       .  S
C4209      H4217   1.088       .  S
C4209      C4210   1.345       .  D
C4210      H4218   1.086       .  S
C4219      C4227   1.483       .  S
C4219      C4220   1.404       .  A
C4219      C4224   1.404       .  A
C4220      C4221   1.404   1_554  A
C4220      H4229   1.083       .  S
C4221      C4222   1.409       .  A
C4221      H4230   1.081       .  S
C4222      C4225   1.488       .  S
C4222      C4223   1.404   1_556  A
C4223      C4224   1.394       .  A
C4223      H4231   1.082   1_554  S
C4224      H4232   1.083       .  S
C4225      H4233   1.086       .  S
C4225      C4226   1.347       .  D
C4226      H4234   1.083       .  S
C4227      H4235   1.087       .  S
C4227      C4228   1.344       .  D
C4228      H4236   1.087       .  S
C4237      C4245   1.498       .  S
C4237      C4238   1.408       .  A
C4237      C4242   1.408       .  A
C4238      C4239   1.408       .  A
C4238      H4247   1.082       .  S
C4239      C4240   1.410       .  A
C4239      H4248   1.082       .  S
C4240      C4243   1.492       .  S
C4240      C4241   1.402       .  A
C4241      C4242   1.395       .  A
C4241      H4249   1.083       .  S
C4242      H4250   1.081       .  S
C4243      H4251   1.087       .  S
C4243      C4244   1.347       .  D
C4244      H4252   1.084       .  S
C4245      H4253   1.086       .  S
C4245      C4246   1.349       .  D
C4246      H4254   1.084       .  S
C4255      C4263   1.486       .  S
C4255      C4256   1.405       .  A
C4255      C4260   1.406       .  A
C4256      C4257   1.400       .  A
C4256      H4265   1.083       .  S
C4257      C4258   1.408       .  A
C4257      H4266   1.081       .  S
C4258      C4261   1.487       .  S
C4258      C4259   1.403       .  A
C4259      C4260   1.396       .  A
C4259      H4267   1.083       .  S
C4260      H4268   1.081       .  S
C4261      H4269   1.087       .  S
C4261      C4262   1.346       .  D
C4262      H4270   1.083       .  S
C4263      H4271   1.087       .  S
C4263      C4264   1.346       .  D
C4264      H4272   1.084       .  S
C4273      C4281   1.480       .  S
C4273      C4274   1.401       .  A
C4273      C4278   1.408       .  A
C4274      C4275   1.394       .  A
C4274      H4283   1.083       .  S
C4275      C4276   1.407       .  A
C4275      H4284   1.081       .  S
C4276      C4279   1.481       .  S
C4276      C4277   1.402       .  A
C4277      C4278   1.397       .  A
C4277      H4285   1.083       .  S
C4278      H4286   1.081       .  S
C4279      H4287   1.087       .  S
C4279      C4280   1.344       .  D
C4280      H4288   1.084       .  S
C4281      H4289   1.087       .  S
C4281      C4282   1.343       .  D
C4282      H4290   1.083       .  S
C4291      C4299   1.491       .  S
C4291      C4292   1.406       .  A
C4291      C4296   1.405       .  A
C4292      C4293   1.407       .  A
C4292      H4301   1.082       .  S
C4293      C4294   1.410       .  A
C4293      H4302   1.081       .  S
C4294      C4297   1.491       .  S
C4294      C4295   1.404       .  A
C4295      C4296   1.394       .  A
C4295      H4303   1.082       .  S
C4296      H4304   1.083       .  S
C4297      H4305   1.087       .  S
C4297      C4298   1.348       .  D
C4298      H4306   1.084       .  S
C4299      H4307   1.086       .  S
C4299      C4300   1.347       .  D
C4300      H4308   1.085       .  S
C4309      C4317   1.490       .  S
C4309      C4310   1.404       .  A
C4309      C4314   1.410       .  A
C4310      C4311   1.396       .  A
C4310      H4319   1.083       .  S
C4311      C4312   1.406       .  A
C4311      H4320   1.081       .  S
C4312      C4315   1.485       .  S
C4312      C4313   1.403       .  A
C4313      C4314   1.400       .  A
C4313      H4321   1.083       .  S
C4314      H4322   1.079       .  S
C4315      H4323   1.087       .  S
C4315      C4316   1.345       .  D
C4316      H4324   1.084       .  S
C4317      H4325   1.087       .  S
C4317      C4318   1.346       .  D
C4318      H4326   1.082       .  S
C4327      C4335   1.491       .  S
C4327      C4328   1.405       .  A
C4327      C4332   1.408       .  A
C4328      C4329   1.401   1_554  A
C4328      H4337   1.083       .  S
C4329      C4330   1.408       .  A
C4329      H4338   1.082       .  S
C4330      C4333   1.489       .  S
C4330      C4331   1.403       .  A
C4331      C4332   1.399   1_556  A
C4331      H4339   1.083       .  S
C4332      H4340   1.081       .  S
C4333      H4341   1.087       .  S
C4333      C4334   1.347       .  D
C4334      H4342   1.085       .  S
C4335      H4343   1.087       .  S
C4335      C4336   1.347       .  D
C4336      H4344   1.084       .  S
C4345      C4353   1.496       .  S
C4345      C4346   1.405       .  A
C4345      C4350   1.410       .  A
C4346      C4347   1.402       .  A
C4346      H4355   1.083       .  S
C4347      C4348   1.409       .  A
C4347      H4356   1.081       .  S
C4348      C4351   1.496       .  S
C4348      C4349   1.405       .  A
C4349      C4350   1.402       .  A
C4349      H4357   1.083       .  S
C4350      H4358   1.081       .  S
C4351      H4359   1.087       .  S
C4351      C4352   1.349       .  D
C4352      H4360   1.082       .  S
C4353      H4361   1.087       .  S
C4353      C4354   1.348       .  D
C4354      H4362   1.083       .  S
C4363      C4371   1.490       .  S
C4363      C4364   1.404       .  A
C4363      C4368   1.408       .  A
C4364      C4365   1.402       .  A
C4364      H4373   1.083       .  S
C4365      C4366   1.409       .  A
C4365      H4374   1.081       .  S
C4366      C4369   1.490       .  S
C4366      C4367   1.403       .  A
C4367      C4368   1.397       .  A
C4367      H4375   1.083       .  S
C4368      H4376   1.081       .  S
C4369      H4377   1.087       .  S
C4369      C4370   1.346       .  D
C4370      H4378   1.084       .  S
C4371      H4379   1.087       .  S
C4371      C4372   1.346       .  D
C4372      H4380   1.085       .  S
C4381      C4389   1.485       .  S
C4381      C4382   1.403       .  A
C4381      C4386   1.407       .  A
C4382      C4383   1.399       .  A
C4382      H4391   1.082       .  S
C4383      C4384   1.407       .  A
C4383      H4392   1.083   1_545  S
C4384      C4387   1.484   1_545  S
C4384      C4385   1.403       .  A
C4385      C4386   1.399       .  A
C4385      H4393   1.083       .  S
C4386      H4394   1.082       .  S
C4387      H4395   1.088       .  S
C4387      C4388   1.345       .  D
C4388      H4396   1.086       .  S
C4389      H4397   1.087       .  S
C4389      C4390   1.345       .  D
C4390      H4398   1.085       .  S
C4399      C4407   1.496       .  S
C4399      C4400   1.406       .  A
C4399      C4404   1.409       .  A
C4400      C4401   1.405       .  A
C4400      H4409   1.083       .  S
C4401      C4402   1.409       .  A
C4401      H4410   1.082       .  S
C4402      C4405   1.494       .  S
C4402      C4403   1.403       .  A
C4403      C4404   1.400       .  A
C4403      H4411   1.083       .  S
C4404      H4412   1.081       .  S
C4405      H4413   1.087       .  S
C4405      C4406   1.348       .  D
C4406      H4414   1.085       .  S
C4407      H4415   1.087       .  S
C4407      C4408   1.349       .  D
C4408      H4416   1.084       .  S
C4417      C4425   1.490       .  S
C4417      C4418   1.406       .  A
C4417      C4422   1.406       .  A
C4418      C4419   1.402       .  A
C4418      H4427   1.083       .  S
C4419      C4420   1.409       .  A
C4419      H4428   1.080       .  S
C4420      C4423   1.490       .  S
C4420      C4421   1.404       .  A
C4421      C4422   1.396       .  A
C4421      H4429   1.083       .  S
C4422      H4430   1.081       .  S
C4423      H4431   1.087       .  S
C4423      C4424   1.347       .  D
C4424      H4432   1.083       .  S
C4425      H4433   1.087       .  S
C4425      C4426   1.348       .  D
C4426      H4434   1.084       .  S
C4435      C4443   1.493       .  S
C4435      C4436   1.405       .  A
C4435      C4440   1.407       .  A
C4436      C4437   1.404       .  A
C4436      H4445   1.083       .  S
C4437      C4438   1.410       .  A
C4437      H4446   1.080       .  S
C4438      C4441   1.497       .  S
C4438      C4439   1.406       .  A
C4439      C4440   1.400       .  A
C4439      H4447   1.083       .  S
C4440      H4448   1.082       .  S
C4441      H4449   1.087       .  S
C4441      C4442   1.350       .  D
C4442      H4450   1.083       .  S
C4443      H4451   1.087       .  S
C4443      C4444   1.347       .  D
C4444      H4452   1.085       .  S
C4453      C4461   1.486       .  S
C4453      C4454   1.402       .  A
C4453      C4458   1.407       .  A
C4454      C4455   1.396       .  A
C4454      H4463   1.083       .  S
C4455      C4456   1.408       .  A
C4455      H4464   1.079       .  S
C4456      C4459   1.490       .  S
C4456      C4457   1.406       .  A
C4457      C4458   1.400       .  A
C4457      H4465   1.083       .  S
C4458      H4466   1.082       .  S
C4459      H4467   1.087       .  S
C4459      C4460   1.347       .  D
C4460      H4468   1.081       .  S
C4461      H4469   1.088       .  S
C4461      C4462   1.345       .  D
C4462      H4470   1.085       .  S
C4471      C4479   1.486       .  S
C4471      C4472   1.403       .  A
C4471      C4476   1.408       .  A
C4472      C4473   1.397   1_545  A
C4472      H4481   1.083       .  S
C4473      C4474   1.405       .  A
C4473      H4482   1.082       .  S
C4474      C4477   1.485       .  S
C4474      C4475   1.404   1_565  A
C4475      C4476   1.401       .  A
C4475      H4483   1.083   1_545  S
C4476      H4484   1.082       .  S
C4477      H4485   1.087       .  S
C4477      C4478   1.346       .  D
C4478      H4486   1.085       .  S
C4479      H4487   1.087       .  S
C4479      C4480   1.345       .  D
C4480      H4488   1.085       .  S
C4489      C4497   1.487       .  S
C4489      C4490   1.403       .  A
C4489      C4494   1.406       .  A
C4490      C4491   1.401       .  A
C4490      H4499   1.082       .  S
C4491      C4492   1.409       .  A
C4491      H4500   1.081       .  S
C4492      C4495   1.493       .  S
C4492      C4493   1.405       .  A
C4493      C4494   1.400       .  A
C4493      H4501   1.083       .  S
C4494      H4502   1.082       .  S
C4495      H4503   1.087       .  S
C4495      C4496   1.347       .  D
C4496      H4504   1.085       .  S
C4497      H4505   1.087       .  S
C4497      C4498   1.346       .  D
C4498      H4506   1.086       .  S
C4507      C4515   1.493       .  S
C4507      C4508   1.405       .  A
C4507      C4512   1.407       .  A
C4508      C4509   1.405       .  A
C4508      H4517   1.082       .  S
C4509      C4510   1.410       .  A
C4509      H4518   1.080       .  S
C4510      C4513   1.493       .  S
C4510      C4511   1.404       .  A
C4511      C4512   1.396       .  A
C4511      H4519   1.083       .  S
C4512      H4520   1.082       .  S
C4513      H4521   1.087       .  S
C4513      C4514   1.348       .  D
C4514      H4522   1.082       .  S
C4515      H4523   1.086       .  S
C4515      C4516   1.346       .  D
C4516      H4524   1.085       .  S
C4525      C4533   1.495       .  S
C4525      C4526   1.404       .  A
C4525      C4530   1.409       .  A
C4526      C4527   1.398       .  A
C4526      H4535   1.083       .  S
C4527      C4528   1.409       .  A
C4527      H4536   1.080       .  S
C4528      C4531   1.496       .  S
C4528      C4529   1.406       .  A
C4529      C4530   1.403       .  A
C4529      H4537   1.083       .  S
C4530      H4538   1.080       .  S
C4531      H4539   1.087       .  S
C4531      C4532   1.349       .  D
C4532      H4540   1.083       .  S
C4533      H4541   1.087       .  S
C4533      C4534   1.348       .  D
C4534      H4542   1.082       .  S
C4543      C4551   1.485       .  S
C4543      C4544   1.403       .  A
C4543      C4548   1.408       .  A
C4544      C4545   1.398   1_545  A
C4544      H4553   1.083       .  S
C4545      C4546   1.408       .  A
C4545      H4554   1.081       .  S
C4546      C4549   1.484       .  S
C4546      C4547   1.402   1_565  A
C4547      C4548   1.396       .  A
C4547      H4555   1.083   1_545  S
C4548      H4556   1.081       .  S
C4549      H4557   1.088       .  S
C4549      C4550   1.343       .  D
C4550      H4558   1.085       .  S
C4551      H4559   1.088       .  S
C4551      C4552   1.343       .  D
C4552      H4560   1.085       .  S
C4561      C4569   1.487       .  S
C4561      C4562   1.404       .  A
C4561      C4566   1.407       .  A
C4562      C4563   1.400       .  A
C4562      H4571   1.083       .  S
C4563      C4564   1.405       .  A
C4563      H4572   1.083       .  S
C4564      C4567   1.483       .  S
C4564      C4565   1.403       .  A
C4565      C4566   1.400       .  A
C4565      H4573   1.083       .  S
C4566      H4574   1.083       .  S
C4567      H4575   1.087       .  S
C4567      C4568   1.345       .  D
C4568      H4576   1.086       .  S
C4569      H4577   1.087       .  S
C4569      C4570   1.346       .  D
C4570      H4578   1.086       .  S
C4579      C4587   1.486       .  S
C4579      C4580   1.403       .  A
C4579      C4584   1.407       .  A
C4580      C4581   1.399       .  A
C4580      H4589   1.083       .  S
C4581      C4582   1.408       .  A
C4581      H4590   1.081       .  S
C4582      C4585   1.490       .  S
C4582      C4583   1.405       .  A
C4583      C4584   1.402       .  A
C4583      H4591   1.083       .  S
C4584      H4592   1.082       .  S
C4585      H4593   1.087       .  S
C4585      C4586   1.346       .  D
C4586      H4594   1.085       .  S
C4587      H4595   1.087       .  S
C4587      C4588   1.347       .  D
C4588      H4596   1.085       .  S
C4597      C4605   1.486       .  S
C4597      C4598   1.404       .  A
C4597      C4602   1.408       .  A
C4598      C4599   1.400       .  A
C4598      H4607   1.083       .  S
C4599      C4600   1.407       .  A
C4599      H4608   1.081       .  S
C4600      C4603   1.484       .  S
C4600      C4601   1.402       .  A
C4601      C4602   1.395       .  A
C4601      H4609   1.083       .  S
C4602      H4610   1.081       .  S
C4603      H4611   1.088       .  S
C4603      C4604   1.346       .  D
C4604      H4612   1.084       .  S
C4605      H4613   1.088       .  S
C4605      C4606   1.344       .  D
C4606      H4614   1.085       .  S
C4615      C4623   1.489       .  S
C4615      C4616   1.404       .  A
C4615      C4620   1.408       .  A
C4616      C4617   1.399       .  A
C4616      H4625   1.083       .  S
C4617      C4618   1.406       .  A
C4617      H4626   1.082       .  S
C4618      C4621   1.486       .  S
C4618      C4619   1.404       .  A
C4619      C4620   1.401       .  A
C4619      H4627   1.083       .  S
C4620      H4628   1.082       .  S
C4621      H4629   1.087       .  S
C4621      C4622   1.347       .  D
C4622      H4630   1.085       .  S
C4623      H4631   1.087       .  S
C4623      C4624   1.347       .  D
C4624      H4632   1.085       .  S
C4633      C4641   1.493       .  S
C4633      C4634   1.406       .  A
C4633      C4638   1.409       .  A
C4634      C4635   1.402       .  A
C4634      H4643   1.083       .  S
C4635      C4636   1.407       .  A
C4635      H4644   1.082       .  S
C4636      C4639   1.486       .  S
C4636      C4637   1.402       .  A
C4637      C4638   1.398       .  A
C4637      H4645   1.083       .  S
C4638      H4646   1.080       .  S
C4639      H4647   1.087       .  S
C4639      C4640   1.346       .  D
C4640      H4648   1.085       .  S
C4641      H4649   1.086       .  S
C4641      C4642   1.348       .  D
C4642      H4650   1.082       .  S
C4651      C4659   1.486       .  S
C4651      C4652   1.402       .  A
C4651      C4656   1.408       .  A
C4652      C4653   1.397       .  A
C4652      H4661   1.082       .  S
C4653      C4654   1.407       .  A
C4653      H4662   1.082       .  S
C4654      C4657   1.489       .  S
C4654      C4655   1.405       .  A
C4655      C4656   1.403       .  A
C4655      H4663   1.083       .  S
C4656      H4664   1.083       .  S
C4657      H4665   1.088       .  S
C4657      C4658   1.346       .  D
C4658      H4666   1.086       .  S
C4659      H4667   1.087       .  S
C4659      C4660   1.345       .  D
C4660      H4668   1.085       .  S
C4669      C4677   1.481       .  S
C4669      C4670   1.401   1_565  A
C4669      C4674   1.406       .  A
C4670      C4671   1.398       .  A
C4670      H4679   1.083   1_545  S
C4671      C4672   1.410       .  A
C4671      H4680   1.080       .  S
C4672      C4675   1.490       .  S
C4672      C4673   1.404       .  A
C4673      C4674   1.398   1_545  A
C4673      H4681   1.083       .  S
C4674      H4682   1.082       .  S
C4675      H4683   1.087       .  S
C4675      C4676   1.344       .  D
C4676      H4684   1.083       .  S
C4677      H4685   1.087       .  S
C4677      C4678   1.343       .  D
C4678      H4686   1.086       .  S
C4687      C4695   1.491       .  S
C4687      C4688   1.408       .  A
C4687      C4692   1.404       .  A
C4688      C4689   1.401       .  A
C4688      H4697   1.081       .  S
C4689      C4690   1.410       .  A
C4689      H4698   1.080       .  S
C4690      C4693   1.494       .  S
C4690      C4691   1.404       .  A
C4691      C4692   1.399       .  A
C4691      H4699   1.083       .  S
C4692      H4700   1.084       .  S
C4693      H4701   1.088       .  S
C4693      C4694   1.346       .  D
C4694      H4702   1.084       .  S
C4695      H4703   1.088       .  S
C4695      C4696   1.347       .  D
C4696      H4704   1.085       .  S
