geometry optimzed in LAMMPS
_audit_creation_date              2020-12-01 
_audit_creation_method            'lammps2cif' 
_symmetry_space_group_name_H-M    'P1' 
_symmetry_Int_Tables_number       1 
_symmetry_cell_setting            triclinic 
loop_ 
_symmetry_equiv_pos_as_xyz 
  x,y,z 
_cell_length_a                    26.05568331 
_cell_length_b                    25.986059861386412 
_cell_length_c                    41.04412577018124 
_cell_angle_alpha                 91.21657814681124 
_cell_angle_beta                  89.24868196083501 
_cell_angle_gamma                 90.41995499348977 
loop_ 
_atom_site_label 
_atom_site_type_symbol 
_atom_site_fract_x 
_atom_site_fract_y 
_atom_site_fract_z 
_atom_site_charge 
O1          O  0.52533588  0.09170739  0.77571042    -0.81100
O2          O  0.56003317  0.02592908  0.90872696    -0.65800
O3          O  0.52368128  0.11134915  0.83993061    -1.12400
C4          C  0.68913096  0.17875228  0.84696973     1.05800
O5          O  0.58694706  0.09688517  0.93546066    -0.79000
O6          O  0.57552162  0.18673325  0.90177966    -0.66600
Ni7        Ni  0.47474479  0.08916998  0.80923496     1.34900
C8          C  0.56434393  0.21165267  0.87650695     0.84500
O9          O  0.47017289  0.03876291  0.87743142    -0.79600
O10         O  0.42411576  0.08537901  0.84316722    -0.89800
C11         C  0.56787021  0.05107592  0.93546047     0.84100
O12         O  0.48604967  0.01753625  0.81364932    -0.68000
O13         O  0.67577749  0.17717335  0.87724129    -0.87300
C14         C  0.53115925  0.00069940  0.81380095     0.84900
C15         C  0.42699228  0.05626859  0.86772270     1.06500
H16         H  0.63268685  0.06887270  0.86399161     0.38300
O17         O  0.60761583  0.09541563  0.86845251    -1.10000
O18         O  0.57937822  0.19723664  0.84829003    -0.66600
Ni19       Ni  0.59383388  0.13063055  0.82971318     1.26300
O20         O  0.56028754  0.01370189  0.83784986    -0.66900
O21         O  0.66435924  0.15428542  0.82446142    -0.79200
C22         C  0.54724987  0.13360822  0.76877726     0.84300
O23         O  0.57594168  0.15799082  0.78886642    -0.66300
Ni24       Ni  0.62921422  0.13623527  0.90463660     1.27400
Ni25       Ni  0.54026795  0.06559397  0.87249770     1.26100
H26         H  0.50705089  0.13988336  0.85099973     0.38800
O27         O  0.42273298  0.02655600  0.72955312    -0.81100
O28         O  0.47060364  0.97833964  0.58967995    -0.65800
O29         O  0.40006092  0.02757053  0.66448532    -1.12400
C30         C  0.31074940  0.87061112  0.65525017     1.05800
O31         O  0.39309401  0.97117419  0.56721498    -0.79000
O32         O  0.30715331  0.98782483  0.60679210    -0.66600
Ni33       Ni  0.43245230  0.07291265  0.69442456     1.34900
C34         C  0.28732187  0.00178081  0.63408581     0.84500
O35         O  0.47850180  0.06690210  0.62357287    -0.79600
O36         O  0.44229004  0.12099848  0.65998762    -0.89800
C37         C  0.44165832  0.97973100  0.56473105     0.84100
O38         O  0.50015132  0.04717017  0.68700156    -0.68000
O39         O  0.31123631  0.88545885  0.62554917    -0.87300
C40         C  0.50847286  0.99946958  0.68390955     0.84900
C41         C  0.46740891  0.11237483  0.63359644     1.06500
H42         H  0.42015959  0.91369866  0.63473056     0.38300
O43         O  0.39827806  0.94328864  0.63263969    -1.10000
O44         O  0.30539977  0.98780993  0.66094486    -0.66600
Ni45       Ni  0.37018832  0.96135289  0.67382210     1.26300
O46         O  0.48893400  0.97423745  0.65955990    -0.66900
O47         O  0.33589991  0.89433800  0.67809681    -0.79200
C48         C  0.37976196  0.00643410  0.73696721     0.84300
O49         O  0.35111388  0.98233801  0.71663348    -0.66300
Ni50       Ni  0.35254590  0.93036096  0.59806264     1.27400
Ni51       Ni  0.43914111  0.00389305  0.62867061     1.26100
H52         H  0.37369397  0.04857628  0.65536293     0.38800
O53         O  0.17600917  0.99058128  0.79664863    -0.81100
O54         O  0.04519662  0.99844841  0.92300784    -0.65800
O55         O  0.15202722  0.00484105  0.85878182    -1.12400
C56         C  0.19203549  0.83974587  0.88849285     1.05800
O57         O  0.10642001  0.97252731  0.95651247    -0.79000
O58         O  0.20228880  0.96903177  0.92992859    -0.66600
Ni59       Ni  0.15189893  0.04715297  0.82180094     1.34900
C60         C  0.23505196  0.96701012  0.90679402     0.84500
O61         O  0.07686997  0.07405543  0.88454566    -0.79600
O62         O  0.12717807  0.10672576  0.84566933    -0.89800
C63         C  0.06359680  0.99450704  0.95179860     0.84100
O64         O  0.08478201  0.02795113  0.80974023    -0.68000
O65         O  0.18673453  0.86370549  0.91596351    -0.87300
C66         C  0.04909056  0.00010946  0.82144905     0.84900
C67         C  0.09361859  0.11193070  0.86838603     1.06500
H68         H  0.08694260  0.90995556  0.88914691     0.38300
O69         O  0.11550349  0.93310567  0.89306199    -1.10000
O70         O  0.22592522  0.94184002  0.88096584    -0.66600
Ni71       Ni  0.16307829  0.93002739  0.85799822     1.26300
O72         O  0.04771019  0.98510496  0.85160006    -0.66900
O73         O  0.17393031  0.85763951  0.86229731    -0.79200
C74         C  0.21540736  0.96674407  0.80533352     0.84300
O75         O  0.20973117  0.92806473  0.82263932    -0.66300
Ni76       Ni  0.14597663  0.92005101  0.93407075     1.27400
Ni77       Ni  0.09551821  0.00320103  0.88812321     1.26100
H78         H  0.17882206  0.02086673  0.87137249     0.38800
O79         O  0.97109567  0.18543913  0.73051431    -0.81100
O80         O  0.98293331  0.04983815  0.60589893    -0.65800
O81         O  0.98497235  0.15999289  0.66889320    -1.12400
C82         C  0.81606563  0.19058578  0.64108491     1.05800
O83         O  0.94812818  0.10529068  0.57191191    -0.79000
O84         O  0.94125310  0.20250016  0.59599684    -0.66600
Ni85       Ni  0.02829900  0.16245293  0.70583141     1.34900
C86         C  0.93970254  0.23741523  0.61803432     0.84500
O87         O  0.05696779  0.08837373  0.64266602    -0.79600
O88         O  0.08852595  0.13908589  0.68217329    -0.89800
C89         C  0.97601340  0.06603816  0.57692703     0.84100
O90         O  0.01212917  0.09475670  0.71855253    -0.68000
O91         O  0.83807055  0.18397636  0.61316394    -0.87300
C92         C  0.98691102  0.05674336  0.70692155     0.84900
C93         C  0.09452239  0.10650346  0.65879629     1.06500
H94         H  0.89254062  0.08812529  0.64134910     0.38300
O95         O  0.91351858  0.11773708  0.63615680    -1.10000
O96         O  0.91830390  0.22951314  0.64530317    -0.66600
Ni97       Ni  0.90970836  0.16788523  0.67031115     1.26300
O98         O  0.97171247  0.05378500  0.67680016    -0.66900
O99         O  0.83678095  0.17549202  0.66718460    -0.79200
C100        C  0.94676199  0.22412576  0.72111778     0.84300
O101        O  0.90676657  0.21633384  0.70525438    -0.66300
Ni102      Ni  0.89512815  0.14382606  0.59478063     1.27400
Ni103      Ni  0.98515308  0.10212471  0.64008507     1.26100
H104        H  0.99914836  0.18734473  0.65608796     0.38800
O105        O  0.29270332  0.47128553  0.82512184    -0.81100
O106        O  0.47406892  0.50976165  0.92622874    -0.65800
O107        O  0.35685847  0.48765505  0.87382794    -1.12400
C108        C  0.32629585  0.66063163  0.89207291     1.05800
O109        O  0.41697678  0.54174081  0.96218442    -0.79000
O110        O  0.31693846  0.54697505  0.94445432    -0.66600
Ni111      Ni  0.35752085  0.44370933  0.83701652     1.34900
C112        C  0.28136144  0.54517627  0.92367013     0.84500
O113        O  0.43422514  0.42489443  0.89796270    -0.79600
O114        O  0.42011440  0.40823388  0.84610031    -0.89800
C115        C  0.46079007  0.52195582  0.95563471     0.84100
O116        O  0.39620309  0.49611283  0.81675977    -0.68000
O117        O  0.33533268  0.64468576  0.92077571    -0.87300
C118        C  0.44181850  0.50869701  0.82488019     0.84900
C119        C  0.43926841  0.39588608  0.87300760     1.06500
H120        H  0.42750079  0.58819601  0.89104835     0.38300
O121        O  0.39944708  0.56702967  0.89882456    -1.10000
O122        O  0.28882550  0.55864645  0.89467768    -0.66600
Ni123      Ni  0.34866436  0.56132861  0.86740032     1.26300
O124        O  0.45766793  0.50690514  0.85508739    -0.66900
O125        O  0.33943087  0.63466145  0.86643757    -0.79200
C126        C  0.27651749  0.51701256  0.82327567     0.84300
O127        O  0.30147050  0.55549296  0.83371011    -0.66300
Ni128      Ni  0.37633948  0.59151729  0.94011191     1.27400
Ni129      Ni  0.41777260  0.49663273  0.89740211     1.26100
H130        H  0.33107609  0.47438454  0.88856922     0.38800
O131        O  0.45163144  0.31256816  0.68935197    -0.81100
O132        O  0.51149504  0.49759848  0.59757545    -0.65800
O133        O  0.47856460  0.38049691  0.64614106    -1.12400
C134        C  0.64968856  0.33977313  0.63855783     1.05800
O135        O  0.54872067  0.44118280  0.56286431    -0.79000
O136        O  0.54636875  0.33979359  0.57947666    -0.66600
Ni137      Ni  0.42708858  0.37915281  0.67837511     1.34900
C138        C  0.53961730  0.30386124  0.59964991     0.84500
O139        O  0.42257398  0.45901493  0.61866582    -0.79600
O140        O  0.39430836  0.44279144  0.66818804    -0.89800
C141        C  0.52549526  0.48368529  0.56860651     0.84100
O142        O  0.47458122  0.41613393  0.70430323    -0.68000
O143        O  0.63991772  0.35286104  0.60933784    -0.87300
C144        C  0.49288048  0.46081941  0.69829777     0.84900
C145        C  0.38739971  0.46068815  0.64012221     1.06500
H146        H  0.58323018  0.44796159  0.63702281     0.38300
O147        O  0.56261812  0.42066183  0.62745282    -1.10000
O148        O  0.54837016  0.31026731  0.62958727    -0.66600
Ni149      Ni  0.55001713  0.36951111  0.65773897     1.26300
O150        O  0.49741571  0.47858488  0.66856568    -0.66900
O151        O  0.62223982  0.35554490  0.66297384    -0.79200
C152        C  0.49641037  0.29587651  0.69427403     0.84300
O153        O  0.53611746  0.32328666  0.69096343    -0.66300
Ni154      Ni  0.59249510  0.39746314  0.58754372     1.27400
Ni155      Ni  0.49298011  0.44122059  0.62451438     1.26100
H156        H  0.46762483  0.35599500  0.62970236     0.38800
O157        O  0.02381691  0.43332014  0.77867525    -0.81100
O158        O  0.95320306  0.49035971  0.91331361    -0.65800
O159        O  0.01474976  0.41478990  0.84453825    -1.12400
C160        C  0.86136124  0.32120176  0.84536665     1.05800
O161        O  0.94271074  0.41544123  0.93783125    -0.79000
O162        O  0.96859788  0.32791104  0.90233722    -0.66600
Ni163      Ni  0.06381150  0.44535488  0.81681055     1.34900
C164        C  0.98734745  0.30597976  0.87688621     0.84500
O165        O  0.04757899  0.49520587  0.88672928    -0.79600
O166        O  0.10569625  0.45672957  0.85418940    -0.89800
C167        C  0.95123026  0.46422179  0.93927727     0.84100
O168        O  0.03723288  0.51348617  0.82108011    -0.68000
O169        O  0.87080555  0.32496261  0.87598772    -0.87300
C170        C  0.98953110  0.52218247  0.82125975     0.84900
C171        C  0.09362138  0.48110978  0.88039846     1.06500
H172        H  0.89714985  0.43550146  0.86557520     0.38300
O173        O  0.92624199  0.41420823  0.87037530    -1.10000
O174        O  0.97639335  0.31994854  0.84844231    -0.66600
Ni175      Ni  0.95147316  0.38301563  0.83149216     1.26300
O176        O  0.96097817  0.50354641  0.84406110    -0.66900
O177        O  0.88644232  0.34695720  0.82361566    -0.79200
C178        C  0.00405012  0.39019054  0.77066224     0.84300
O179        O  0.97976582  0.36119712  0.79061521    -0.66300
Ni180      Ni  0.90864606  0.37097401  0.90533048     1.27400
Ni181      Ni  0.98540980  0.45588799  0.87767361     1.26100
H182        H  0.03443760  0.38973631  0.85590305     0.38800
O183        O  0.08545705  0.53192335  0.72744306    -0.81100
O184        O  0.01003616  0.56829810  0.59515003    -0.65800
O185        O  0.09850094  0.53013528  0.66196552    -1.12400
C186        C  0.17079321  0.69355480  0.65288951     1.05800
O187        O  0.08004429  0.59238972  0.56694763    -0.79000
O188        O  0.17179063  0.57877494  0.59837344    -0.66600
Ni189      Ni  0.07815676  0.48198899  0.69322244     1.34900
C190        C  0.19783237  0.56758856  0.62322567     0.84500
O191        O  0.02065601  0.47797542  0.62690615    -0.79600
O192        O  0.06965711  0.43106456  0.65935265    -0.89800
C193        C  0.03383707  0.57477137  0.56797328     0.84100
O194        O  0.00665601  0.49589797  0.69136295    -0.68000
O195        O  0.16653756  0.67906629  0.62287377    -0.87300
C196        C  0.99048517  0.54141409  0.69063325     0.84900
C197        C  0.03683492  0.43431571  0.63673624     1.06500
H198        H  0.05809973  0.64007178  0.63843463     0.38300
O199        O  0.08341508  0.61395034  0.63349857    -1.10000
O200        O  0.18527123  0.58253703  0.65174460    -0.66600
Ni201      Ni  0.12058423  0.59998133  0.67137397     1.26300
O202        O  0.00261554  0.56961118  0.66613945    -0.66900
O203        O  0.14651293  0.67050593  0.67601190    -0.79200
C204        C  0.12678439  0.55638830  0.73287734     0.84300
O205        O  0.15021782  0.58225245  0.71121812    -0.66300
Ni206      Ni  0.12249698  0.63374883  0.59657783     1.27400
Ni207      Ni  0.05106045  0.54737026  0.63047975     1.26100
H208        H  0.12543204  0.51254218  0.65003489     0.38800
O209        O  0.43128058  0.60748092  0.44884504    -0.81100
O210        O  0.43892463  0.66559309  0.30413666    -0.65800
O211        O  0.40624200  0.60585575  0.38367445    -1.12400
C212        C  0.58194032  0.55403374  0.37759425     1.05800
O213        O  0.48774458  0.60019587  0.28595731    -0.79000
O214        O  0.51951626  0.52146721  0.32298342    -0.66600
Ni215      Ni  0.39000960  0.64860443  0.42028084     1.34900
C216        C  0.47371207  0.50601115  0.32573047     0.84500
O217        O  0.35225711  0.66903410  0.34182909    -0.79600
O218        O  0.34574511  0.69210409  0.39486174    -0.89800
C219        C  0.46130605  0.64027057  0.28132796     0.84100
O220        O  0.44564938  0.69760173  0.41545909    -0.68000
O221        O  0.58674351  0.58407235  0.35350479    -0.87300
C222        C  0.45613677  0.72143701  0.38941075     0.84900
C223        C  0.33172789  0.69626491  0.36514919     1.06500
H224        H  0.50831094  0.64304518  0.36311722     0.38300
O225        O  0.48954470  0.61574517  0.35219573    -1.10000
O226        O  0.44645514  0.52061281  0.35084175    -0.66600
Ni227      Ni  0.47089041  0.57091666  0.38513147     1.26300
O228        O  0.44196624  0.70494138  0.36178256    -0.66900
O229        O  0.53795121  0.53827574  0.38773986    -0.79200
C230        C  0.44584146  0.56042285  0.44849926     0.84300
O231        O  0.44952365  0.53335089  0.42210439    -0.66300
Ni232      Ni  0.53657584  0.59255724  0.32012459     1.27400
Ni233      Ni  0.42099224  0.63966447  0.34470812     1.26100
H234        H  0.37872922  0.58127710  0.38022562     0.38800
O235        O  0.59671419  0.43394062  0.07550190    -0.81100
O236        O  0.64220670  0.44886352  0.22362263    -0.65800
O237        O  0.59119474  0.41246024  0.14138022    -1.12400
C238        C  0.54132566  0.58895050  0.14128020     1.05800
O239        O  0.57663850  0.50104829  0.23728142    -0.79000
O240        O  0.50301045  0.53002225  0.19552135    -0.66600
Ni241      Ni  0.63657540  0.39525919  0.10655884     1.34900
C242        C  0.48889828  0.48356708  0.19490029     0.84500
O243        O  0.65009054  0.36051926  0.18631466    -0.79600
O244        O  0.67887430  0.35314485  0.13440898    -0.89800
C245        C  0.61430360  0.47287102  0.24463256     0.84100
O246        O  0.68268064  0.45314652  0.11271888    -0.68000
O247        O  0.56907269  0.59504354  0.16649278    -0.87300
C248        C  0.70566140  0.46454914  0.13914400     0.84900
C249        C  0.67960011  0.33958430  0.16433682     1.06500
H250        H  0.62700570  0.51576711  0.16144063     0.38300
O251        O  0.59892996  0.49770837  0.17173201    -1.10000
O252        O  0.50464618  0.45410286  0.17104497    -0.66600
Ni253      Ni  0.55661992  0.47688697  0.13759575     1.26300
O254        O  0.68861886  0.44948199  0.16640843    -0.66900
O255        O  0.52481629  0.54431658  0.13216041    -0.79200
C256        C  0.54973194  0.44835956  0.07437050     0.84300
O257        O  0.52153445  0.45265799  0.10010090    -0.66300
Ni258      Ni  0.57329472  0.54727807  0.20153832     1.27400
Ni259      Ni  0.62157263  0.42933628  0.18145865     1.26100
H260        H  0.56654047  0.38489541  0.14422289     0.38800
O261        O  0.58009028  0.07325958  0.44883505    -0.81100
O262        O  0.69770375  0.05961843  0.31799743    -0.65800
O263        O  0.60027688  0.09116689  0.38349314    -1.12400
C264        C  0.54322017  0.92158456  0.36678328     1.05800
O265        O  0.69022821  0.97439730  0.31234942    -0.79000
O266        O  0.59201860  0.01369076  0.30401886    -0.66600
Ni267      Ni  0.62681700  0.11609192  0.42390921     1.34900
C268        C  0.54807733  0.03140921  0.31223545     0.84500
O269        O  0.67136136  0.14722722  0.34822691    -0.79600
O270        O  0.67465026  0.16275508  0.40218270    -0.89800
C271        C  0.71595324  0.01586771  0.31085131     0.84100
O272        O  0.68072537  0.06589132  0.42962061    -0.68000
O273        O  0.55529563  0.93304889  0.33787788    -0.87300
C274        C  0.71494236  0.05542270  0.40823770     0.84900
C275        C  0.68703538  0.17413579  0.37277175     1.06500
H276        H  0.65404204  0.98962291  0.37508500     0.38300
O277        O  0.63052358  0.00512035  0.36038910    -1.10000
O278        O  0.53254142  0.03392839  0.34295225    -0.66600
Ni279      Ni  0.57241029  0.02349016  0.38508729     1.26300
O280        O  0.70862876  0.06543386  0.37866636    -0.66900
O281        O  0.54921768  0.95410134  0.38968801    -0.79200
C282        C  0.53508552  0.05454828  0.44422215     0.84300
O283        O  0.51912440  0.04425837  0.41528518    -0.66300
Ni284      Ni  0.62207057  0.95808396  0.32550547     1.27400
Ni285      Ni  0.65051241  0.07587912  0.35164415     1.26100
H286        H  0.57544220  0.11488259  0.37523219     0.38800
O287        O  0.47688946  0.91322934  0.05369195    -0.81100
O288        O  0.44369813  0.82693027  0.19070015    -0.65800
O289        O  0.44088762  0.90827239  0.11711015    -1.12400
C290        C  0.61158838  0.95316293  0.14285747     1.05800
O291        O  0.52716390  0.81914838  0.19994947    -0.79000
O292        O  0.50647571  0.92343859  0.20169100    -0.66600
Ni293      Ni  0.42416463  0.87495587  0.07711341     1.34900
C294        C  0.49467605  0.96715698  0.19058143     0.84500
O295        O  0.36897335  0.85228052  0.15134086    -0.79600
O296        O  0.36796994  0.83649969  0.09738088    -0.89800
C297        C  0.48112041  0.80312600  0.20190364     0.84100
O298        O  0.46985781  0.81628479  0.08017854    -0.68000
O299        O  0.59783836  0.93988049  0.17124255    -0.87300
C300        C  0.46825329  0.78521017  0.10373583     0.84900
C301        C  0.34715922  0.83318663  0.12584437     1.06500
H302        H  0.53160101  0.84619042  0.13468321     0.38300
O303        O  0.51683222  0.87398263  0.14752357    -1.10000
O304        O  0.49708562  0.97715121  0.15918346    -0.66600
Ni305      Ni  0.51069576  0.92959997  0.11946029     1.26300
O306        O  0.44981318  0.79866969  0.13113994    -0.66900
O307        O  0.58218209  0.94713529  0.11881167    -0.79200
C308        C  0.49363079  0.95955153  0.05726619     0.84300
O309        O  0.50079217  0.97925052  0.08593805    -0.66300
Ni310      Ni  0.55836931  0.88058515  0.18439019     1.27400
Ni311      Ni  0.44232905  0.86466983  0.15253908     1.26100
H312        H  0.41820250  0.93689982  0.12157095     0.38800
O313        O  0.04834283  0.60041889  0.05615547    -0.81100
O314        O  0.05593658  0.71723745  0.18801436    -0.65800
O315        O  0.07432598  0.61773947  0.12083604    -1.12400
C316        C  0.90453064  0.56811839  0.14331122     1.05800
O317        O  0.97131211  0.71368646  0.19671745    -0.79000
O318        O  0.00537107  0.61318517  0.20187632    -0.66600
Ni319      Ni  0.09776809  0.64200753  0.07982571     1.34900
C320        C  0.01748462  0.56763829  0.19274462     0.84500
O321        O  0.13923790  0.68494892  0.15454277    -0.79600
O322        O  0.15051792  0.68411422  0.10020041    -0.89800
C323        C  0.01414379  0.73690900  0.19802144     0.84100
O324        O  0.05311761  0.70131220  0.07637605    -0.68000
O325        O  0.91924000  0.58201613  0.17141786    -0.87300
C326        C  0.04734518  0.73598901  0.09840381     0.84900
C327        C  0.16529484  0.69711414  0.12892988     1.06500
H328        H  0.97801082  0.67945243  0.13306108     0.38300
O329        O  0.99319546  0.65418467  0.14680012    -1.10000
O330        O  0.01598522  0.55287244  0.16190036    -0.66600
Ni331      Ni  0.00466808  0.59492018  0.12106557     1.26300
O332        O  0.05894474  0.72837788  0.12755306    -0.66900
O333        O  0.93330471  0.57577210  0.11885829    -0.79200
C334        C  0.02555323  0.55737978  0.06102514     0.84300
O335        O  0.01867436  0.54070593  0.08995294    -0.66300
Ni336      Ni  0.94956761  0.64721142  0.18314188     1.27400
Ni337      Ni  0.06611510  0.66899194  0.15351608     1.26100
H338        H  0.09660181  0.59092894  0.12823690     0.38800
O339        O  0.90810078  0.47324957  0.44790934    -0.81100
O340        O  0.80940694  0.46189764  0.31274624    -0.65800
O341        O  0.89785932  0.44707815  0.38285116    -1.12400
C342        C  0.94121741  0.61996452  0.36559638     1.05800
O343        O  0.80003715  0.54637875  0.31060372    -0.79000
O344        O  0.90421978  0.52062277  0.30308912    -0.66600
Ni345      Ni  0.86979304  0.42311056  0.42245606     1.34900
C346        C  0.94880862  0.50775334  0.31244334     0.84500
O347        O  0.83887216  0.37944301  0.34584983    -0.79600
O348        O  0.83105734  0.36929098  0.39994940    -0.89800
C349        C  0.78193966  0.50099008  0.30882249     0.84100
O350        O  0.81067463  0.46791396  0.42483496    -0.68000
O351        O  0.92763105  0.60799114  0.33678552    -0.87300
C352        C  0.77747120  0.47057764  0.40259082     0.84900
C353        C  0.82469366  0.35282652  0.37056073     1.06500
H354        H  0.83299285  0.54007972  0.37268234     0.38300
O355        O  0.85998283  0.52702944  0.35854405    -1.10000
O356        O  0.96158311  0.50874646  0.34340110    -0.66600
Ni357      Ni  0.91711276  0.51779361  0.38446258     1.26300
O358        O  0.78756374  0.45657560  0.37362711    -0.66900
O359        O  0.93285296  0.58961177  0.38869078    -0.79200
C360        C  0.95111241  0.49674505  0.44419592     0.84300
O361        O  0.96931765  0.50555708  0.41563421    -0.66300
Ni362      Ni  0.86515080  0.57292959  0.32395513     1.27400
Ni363      Ni  0.85076629  0.45334184  0.34920168     1.26100
H364        H  0.92644428  0.42593702  0.37579177     0.38800
O365        O  0.05958378  0.93243194  0.44920074    -0.81100
O366        O  0.06435481  0.88068816  0.30108534    -0.65800
O367        O  0.09178194  0.93703020  0.38417706    -1.12400
C368        C  0.91569461  0.98650975  0.38110679     1.05800
O369        O  0.01396124  0.94591070  0.28785031    -0.79000
O370        O  0.98026705  0.02257263  0.32803801    -0.66600
Ni371      Ni  0.10460443  0.89300630  0.41925603     1.34900
C372        C  0.02663204  0.03631445  0.32939997     0.84500
O373        O  0.14927771  0.87707275  0.34012819    -0.79600
O374        O  0.15366672  0.85346096  0.39275513    -0.89800
C375        C  0.03612308  0.90377116  0.28111247     0.84100
O376        O  0.05141553  0.84145157  0.41045711    -0.68000
O377        O  0.91227617  0.95814825  0.35541248    -0.87300
C378        C  0.04511428  0.81835338  0.38298889     0.84900
C379        C  0.17063575  0.85196479  0.36317671     1.06500
H380        H  0.99160546  0.89917640  0.36209075     0.38300
O381        O  0.01004067  0.92736315  0.35230398    -1.10000
O382        O  0.05325509  0.02210351  0.35405933    -0.66600
Ni383      Ni  0.02724396  0.97147956  0.38709373     1.26300
O384        O  0.05980767  0.83868324  0.35688064    -0.66900
O385        O  0.95921387  0.00313481  0.39152692    -0.79200
C386        C  0.05063438  0.98112301  0.45139212     0.84300
O387        O  0.04810515  0.00814643  0.42558775    -0.66300
Ni388      Ni  0.96341316  0.95181247  0.32161558     1.27400
Ni389      Ni  0.07985198  0.90520535  0.34339965     1.26100
H390        H  0.11947102  0.96179049  0.38229218     0.38800
O391        O  0.92407634  0.08250739  0.07582892    -0.81100
O392        O  0.86235564  0.06391275  0.22110752    -0.65800
O393        O  0.92399696  0.10548956  0.14253176    -1.12400
C394        C  0.97786414  0.93019900  0.13907503     1.05800
O395        O  0.93358449  0.02252369  0.23393670    -0.79000
O396        O  0.01299707  0.99299163  0.19545524    -0.66600
Ni397      Ni  0.88437931  0.12547857  0.10662491     1.34900
C398        C  0.02462173  0.04008703  0.19567997     0.84500
O399        O  0.85658682  0.15388717  0.18738651    -0.79600
O400        O  0.84305398  0.17140711  0.13446294    -0.89800
C401        C  0.88863363  0.03740568  0.24052420     0.84100
O402        O  0.83178163  0.07294223  0.10879647    -0.68000
O403        O  0.95214832  0.92373782  0.16537007    -0.87300
C404        C  0.80854746  0.05614787  0.13391260     0.84900
C405        C  0.83571447  0.18073881  0.16505721     1.06500
H406        H  0.88996133  0.99976899  0.15880277     0.38300
O407        O  0.91629768  0.01944240  0.16987737    -1.10000
O408        O  0.00942659  0.06748519  0.17175635    -0.66600
Ni409      Ni  0.96071490  0.04200280  0.13717090     1.26300
O410        O  0.82525067  0.06361484  0.16249056    -0.66900
O411        O  0.99390508  0.97491078  0.13042853    -0.79200
C412        C  0.97135820  0.06874931  0.07462652     0.84300
O413        O  0.99819265  0.06692709  0.10053686    -0.66300
Ni414      Ni  0.94291893  0.97299086  0.19998821     1.27400
Ni415      Ni  0.88874488  0.08655833  0.18091841     1.26100
H416        H  0.94777710  0.13308644  0.14772481     0.38800
C417        C  0.04768445  0.05995123  0.29825582    -0.00400
C418        C  0.08410823  0.03220321  0.27938757    -0.12300
C419        C  0.08337431  0.03217651  0.24472621     0.01800
C420        C  0.04647456  0.06098001  0.22766901    -0.00500
C421        C  0.01722801  0.09623248  0.24657518    -0.12200
C422        C  0.01739711  0.09568159  0.28121660     0.01700
H423        H  0.10849747  0.00499883  0.29139187     0.14700
H424        H  0.98905550  0.11947653  0.23455102     0.14700
C425        C  0.98218883  0.12888138  0.29893660     0.36400
C426        C  0.11841989  0.99892663  0.22695106     0.36300
N427        N  0.95418751  0.15567190  0.31321734    -0.44000
N428        N  0.14691370  0.97278099  0.21258985    -0.44000
C429        C  0.96893647  0.66950807  0.37181317    -0.00400
C430        C  0.99710235  0.69044930  0.34607452    -0.12300
C431        C  0.02289592  0.73743160  0.34949405     0.01800
C432        C  0.02033318  0.76621690  0.37954232    -0.00500
C433        C  0.99273941  0.74473353  0.40565501    -0.12200
C434        C  0.96730119  0.69687597  0.40210142     0.01700
H435        H  0.99948167  0.66957610  0.32290992     0.14700
H436        H  0.99021901  0.76568917  0.42873744     0.14700
C437        C  0.93831373  0.67785761  0.42958903     0.36400
C438        C  0.05213833  0.75362586  0.32124759     0.36300
N439        N  0.91510742  0.66255330  0.45162834    -0.44000
N440        N  0.07522048  0.76570420  0.29833048    -0.44000
C441        C  0.02406674  0.78683791  0.09283916    -0.00400
C442        C  0.97370893  0.79298601  0.10465089    -0.12300
C443        C  0.95680955  0.84035657  0.11760157     0.01800
C444        C  0.99069256  0.88323057  0.11904642    -0.00500
C445        C  0.03864759  0.87894501  0.10322350    -0.12200
C446        C  0.05536872  0.83126763  0.09015245     0.01700
H447        H  0.94901810  0.75940471  0.10678756     0.14700
H448        H  0.06442454  0.91188816  0.10289224     0.14700
C449        C  0.10558376  0.82862997  0.07516555     0.36400
C450        C  0.90491269  0.84322429  0.13029906     0.36300
N451        N  0.14542746  0.82807877  0.06242420    -0.44000
N452        N  0.86328757  0.84552668  0.14038513    -0.44000
C453        C  0.02222430  0.87595253  0.25200415    -0.00400
C454        C  0.06051363  0.86582222  0.22883706    -0.12300
C455        C  0.05651085  0.82293160  0.20830733     0.01800
C456        C  0.01479152  0.78856831  0.21265334    -0.00500
C457        C  0.97327290  0.80307195  0.23288318    -0.12200
C458        C  0.97662749  0.84684228  0.25255033     0.01700
H459        H  0.09530954  0.88880585  0.22865371     0.14700
H460        H  0.93987210  0.77824931  0.23542619     0.14700
C461        C  0.93629913  0.85656391  0.27642386     0.36400
C462        C  0.09626246  0.81495069  0.18393126     0.36300
N463        N  0.90417271  0.86398725  0.29565487    -0.44000
N464        N  0.12815053  0.80959299  0.16430280    -0.44000
C465        C  0.98613212  0.49983225  0.28420519    -0.00400
C466        C  0.02792986  0.53400973  0.28134266    -0.12300
C467        C  0.04623599  0.54988143  0.25041867     0.01800
C468        C  0.02292481  0.53169960  0.22107954    -0.00500
C469        C  0.98746161  0.49093935  0.22398378    -0.12200
C470        C  0.96914440  0.47507619  0.25490713     0.01700
H471        H  0.04188030  0.55365815  0.30309543     0.14700
H472        H  0.96879188  0.47612103  0.20222688     0.14700
C473        C  0.92783264  0.43772871  0.25578123     0.36400
C474        C  0.08477558  0.59006423  0.24957971     0.36300
N475        N  0.89457382  0.40798129  0.25640932    -0.44000
N476        N  0.11553470  0.62240293  0.24906619    -0.44000
C477        C  0.29790890  0.80233620  0.12848488    -0.00400
C478        C  0.28520657  0.77534490  0.15707364    -0.12300
C479        C  0.24277832  0.74075603  0.15841455     0.01800
C480        C  0.21222096  0.73171963  0.13054692    -0.00500
C481        C  0.22533732  0.75882430  0.10221855    -0.12200
C482        C  0.26613565  0.79412275  0.10108822     0.01700
H483        H  0.30943550  0.77992750  0.17812781     0.14700
H484        H  0.20304663  0.75293429  0.08036106     0.14700
C485        C  0.27360122  0.82177443  0.07116951     0.36400
C486        C  0.23308458  0.71344823  0.18811097     0.36300
N487        N  0.27920908  0.84380333  0.04715075    -0.44000
N488        N  0.22548227  0.69141421  0.21192435    -0.44000
C489        C  0.66318304  0.97677738  0.13793590    -0.00400
C490        C  0.66959075  0.01837431  0.11680053    -0.12300
C491        C  0.71747149  0.04330837  0.11338451     0.01800
C492        C  0.75996512  0.02632911  0.13117717    -0.00500
C493        C  0.75402604  0.98304212  0.15080595    -0.12200
C494        C  0.70658962  0.95806323  0.15409358     0.01700
H495        H  0.63674560  0.03260933  0.10385513     0.14700
H496        H  0.78662106  0.96916134  0.16418245     0.14700
C497        C  0.70406227  0.91236120  0.17350581     0.36400
C498        C  0.72108878  0.08804421  0.09321621     0.36300
N499        N  0.70240426  0.87552442  0.18885542    -0.44000
N500        N  0.72384402  0.12393351  0.07704801    -0.44000
C501        C  0.72482778  0.21780602  0.36853130    -0.00400
C502        C  0.76137045  0.22564078  0.39307865    -0.12300
C503        C  0.79754129  0.26571134  0.39190702     0.01800
C504        C  0.79632936  0.30226124  0.36676916    -0.00500
C505        C  0.76200960  0.29283214  0.34092315    -0.12200
C506        C  0.72747453  0.25028058  0.34123516     0.01700
H507        H  0.76253810  0.19937416  0.41324982     0.14700
H508        H  0.76099503  0.31942653  0.32096623     0.14700
C509        C  0.69495922  0.24104614  0.31355582     0.36400
C510        C  0.83646281  0.26743922  0.41669413     0.36300
N511        N  0.66936583  0.23263992  0.29121403    -0.44000
N512        N  0.86787874  0.26844222  0.43637751    -0.44000
C513        C  0.86657338  0.00144782  0.39804370    -0.00400
C514        C  0.82540913  0.96613333  0.39733145    -0.12300
C515        C  0.77544277  0.98095178  0.40637128     0.01800
C516        C  0.76525747  0.03242247  0.41592360    -0.00500
C517        C  0.80718180  0.06615409  0.42026029    -0.12200
C518        C  0.85756254  0.05111352  0.41167567     0.01700
H519        H  0.83180749  0.92723741  0.38811943     0.14700
H520        H  0.79994708  0.10600669  0.42713609     0.14700
C521        C  0.89795276  0.08919643  0.41397361     0.36400
C522        C  0.73481416  0.94311112  0.40372580     0.36300
N523        N  0.93004276  0.12007322  0.41592532    -0.44000
N524        N  0.70292840  0.91198861  0.40177353    -0.44000
C525        C  0.76922850  0.01280664  0.30009633    -0.00400
C526        C  0.78313796  0.97248568  0.27862441    -0.12300
C527        C  0.82997885  0.97428490  0.26235331     0.01800
C528        C  0.86251919  0.01670855  0.26804490    -0.00500
C529        C  0.85339048  0.05098425  0.29371406    -0.12200
C530        C  0.80641968  0.05000164  0.30971411     0.01700
H531        H  0.75573844  0.94249545  0.27208925     0.14700
H532        H  0.87963476  0.08291469  0.29799080     0.14700
C533        C  0.79746039  0.09019284  0.33373904     0.36400
C534        C  0.83991885  0.93757595  0.23608540     0.36300
N535        N  0.79313810  0.12354701  0.35262039    -0.44000
N536        N  0.84779515  0.90847346  0.21490930    -0.44000
C537        C  0.51439470  0.04009502  0.28293741    -0.00400
C538        C  0.47200446  0.00716171  0.27803813    -0.12300
C539        C  0.45716597  0.99079914  0.24626937     0.01800
C540        C  0.48526654  0.00627294  0.21800417    -0.00500
C541        C  0.52165927  0.04592402  0.22275300    -0.12200
C542        C  0.53584566  0.06300416  0.25454047     0.01700
H543        H  0.45449391  0.98889160  0.29897931     0.14700
H544        H  0.54387620  0.05899672  0.20195106     0.14700
C545        C  0.57691750  0.10030838  0.25747157     0.36400
C546        C  0.41703685  0.95241927  0.24352695     0.36300
N547        N  0.60969621  0.13040577  0.25973451    -0.44000
N548        N  0.38483330  0.92167491  0.24145684    -0.44000
C549        C  0.72067036  0.30137339  0.17263698    -0.00400
C550        C  0.77116678  0.31198606  0.16189030    -0.12300
C551        C  0.81015428  0.27470033  0.16233468     0.01800
C552        C  0.79978164  0.22457717  0.17353444    -0.00500
C553        C  0.75015260  0.21474796  0.18645182    -0.12200
C554        C  0.71092767  0.25259455  0.18622306     0.01700
H555        H  0.77982369  0.34935755  0.15177770     0.14700
H556        H  0.74096128  0.17641757  0.19478923     0.14700
C557        C  0.66012886  0.23923013  0.19770555     0.36400
C558        C  0.86053680  0.28849206  0.15019018     0.36300
N559        N  0.61931330  0.22862054  0.20690743    -0.44000
N560        N  0.90094708  0.29983422  0.14062318    -0.44000
C561        C  0.75451134  0.49483616  0.13910505    -0.00400
C562        C  0.78442960  0.49819868  0.11044573    -0.12300
C563        C  0.83303982  0.52229224  0.11060665     0.01800
C564        C  0.85323149  0.54256740  0.14017563    -0.00500
C565        C  0.82231013  0.54058798  0.16836771    -0.12200
C566        C  0.77362129  0.51823292  0.16807973     0.01700
H567        H  0.77019722  0.48136056  0.08788495     0.14700
H568        H  0.83580175  0.55743536  0.19113245     0.14700
C569        C  0.74428240  0.52204525  0.19812357     0.36400
C570        C  0.86046839  0.52592178  0.07998642     0.36300
N571        N  0.72197572  0.52637730  0.22255882    -0.44000
N572        N  0.88163628  0.52907322  0.05514704    -0.44000
C573        C  0.63127158  0.47347563  0.27814783    -0.00400
C574        C  0.64223095  0.52263075  0.29077634    -0.12300
C575        C  0.69130397  0.53327511  0.30218754     0.01800
C576        C  0.72707972  0.49259828  0.30327942    -0.00500
C577        C  0.70927532  0.44153256  0.29984605    -0.12200
C578        C  0.66063194  0.43173520  0.28791022     0.01700
H579        H  0.61691476  0.55432008  0.28583566     0.14700
H580        H  0.73445889  0.40926420  0.30368134     0.14700
C581        C  0.64622109  0.37957532  0.27915733     0.36400
C582        C  0.70440758  0.58627396  0.30977119     0.36300
N583        N  0.63424243  0.33801172  0.27185140    -0.44000
N584        N  0.71480400  0.62880312  0.31568881    -0.44000
C585        C  0.52530196  0.63589384  0.12362450    -0.00400
C586        C  0.47360544  0.64168018  0.11522005    -0.12300
C587        C  0.45500956  0.68931669  0.10491686     0.01800
C588        C  0.48861859  0.73195235  0.10152340    -0.00500
C589        C  0.54110881  0.72473613  0.10697283    -0.12200
C590        C  0.55952297  0.67753458  0.11815018     0.01700
H591        H  0.44683992  0.61019065  0.11915266     0.14700
H592        H  0.56717824  0.75731913  0.10518987     0.14700
C593        C  0.61353715  0.67341015  0.12494201     0.36400
C594        C  0.40043540  0.69475879  0.10056706     0.36300
N595        N  0.65683017  0.67008154  0.13041399    -0.44000
N596        N  0.35664278  0.69888729  0.09722792    -0.44000
C597        C  0.29316421  0.73834011  0.35904700    -0.00400
C598        C  0.29671629  0.78354931  0.37853906    -0.12300
C599        C  0.25965704  0.82254412  0.37781737     0.01800
C600        C  0.21678957  0.81798727  0.35714473    -0.00500
C601        C  0.21441726  0.77429833  0.33603894    -0.12200
C602        C  0.25214289  0.73488292  0.33673384     0.01700
H603        H  0.32840693  0.78811649  0.39526551     0.14700
H604        H  0.18151388  0.76935267  0.32037606     0.14700
C605        C  0.24595020  0.68985605  0.31600063     0.36400
C606        C  0.26590457  0.86665681  0.39946908     0.36300
N607        N  0.24098993  0.65366682  0.29938790    -0.44000
N608        N  0.27100654  0.90192523  0.41684881    -0.44000
C609        C  0.62937291  0.53410401  0.39257331    -0.00400
C610        C  0.63430842  0.48087970  0.39682939    -0.12300
C611        C  0.68198136  0.45948076  0.40433350     0.01800
C612        C  0.72551360  0.49155640  0.40843866    -0.00500
C613        C  0.71937923  0.54506378  0.40740497    -0.12200
C614        C  0.67188789  0.56646968  0.39949375     0.01700
H615        H  0.60188624  0.45559965  0.39193111     0.14700
H616        H  0.75268213  0.57000431  0.41011851     0.14700
C617        C  0.66807077  0.62172127  0.39777457     0.36400
C618        C  0.68637057  0.40416081  0.40543047     0.36300
N619        N  0.66495622  0.66603480  0.39654025    -0.44000
N620        N  0.68999602  0.35985882  0.40639941    -0.44000
C621        C  0.48498081  0.77053234  0.38915824    -0.00400
C622        C  0.52011825  0.77722162  0.36332943    -0.12300
C623        C  0.53888844  0.82583081  0.35545503     0.01800
C624        C  0.52323353  0.86947770  0.37407437    -0.00500
C625        C  0.49043414  0.86247612  0.40121948    -0.12200
C626        C  0.47078290  0.81353069  0.40862871     0.01700
H627        H  0.53117090  0.74429829  0.34815557     0.14700
H628        H  0.47865986  0.89552635  0.41598447     0.14700
C629        C  0.43330917  0.80899534  0.43459890     0.36400
C630        C  0.57425365  0.82927683  0.32812873     0.36300
N631        N  0.40304639  0.80504274  0.45528979    -0.44000
N632        N  0.60241092  0.83180862  0.30616217    -0.44000
C633        C  0.45970513  0.66231640  0.24928632    -0.00400
C634        C  0.41643204  0.69224570  0.24347838    -0.12300
C635        C  0.42244754  0.73969163  0.22911482     0.01800
C636        C  0.47099407  0.75324178  0.21605134    -0.00500
C637        C  0.51092815  0.71738891  0.21543890    -0.12200
C638        C  0.50617465  0.67234479  0.23269806     0.01700
H639        H  0.38040736  0.68353067  0.25588111     0.14700
H640        H  0.54743356  0.72644540  0.20379693     0.14700
C641        C  0.55215484  0.64308853  0.23771099     0.36400
C642        C  0.38073740  0.77582664  0.23290454     0.36300
N643        N  0.58982667  0.62097969  0.24173388    -0.44000
N644        N  0.34743422  0.80462614  0.23681820    -0.44000
C645        C  0.45389133  0.47754638  0.29584566    -0.00400
C646        C  0.42075588  0.50411348  0.27541369    -0.12300
C647        C  0.42470034  0.49908933  0.24100303     0.01800
C648        C  0.46182666  0.46628532  0.22582186    -0.00500
C649        C  0.48747381  0.43237314  0.24638740    -0.12200
C650        C  0.48405379  0.43809988  0.28087925     0.01700
H651        H  0.39692464  0.53434809  0.28597336     0.14700
H652        H  0.51584031  0.40640897  0.23582401     0.14700
C653        C  0.51601513  0.40668910  0.30075995     0.36400
C654        C  0.39450641  0.53298872  0.22164491     0.36300
N655        N  0.54097162  0.38167112  0.31723232    -0.44000
N656        N  0.37024398  0.56021818  0.20618678    -0.44000
C657        C  0.97548792  0.51694367  0.47494075    -0.00400
C658        C  0.95441395  0.50021626  0.50480288    -0.12300
C659        C  0.97055343  0.52018907  0.53489656     0.01800
C660        C  0.01047473  0.55715834  0.53634290    -0.00500
C661        C  0.03194671  0.57406111  0.50653098    -0.12200
C662        C  0.01458885  0.55490627  0.47613481     0.01700
H663        H  0.92412809  0.47136919  0.50491953     0.14700
H664        H  0.06248460  0.60262706  0.50687463     0.14700
C665        C  0.03690425  0.57573431  0.44681873     0.36400
C666        C  0.94487983  0.50139536  0.56367956     0.36300
N667        N  0.05472298  0.59255397  0.42332242    -0.44000
N668        N  0.92331361  0.48656445  0.58646671    -0.44000
C669        C  0.96499014  0.48898742  0.97147137    -0.00400
C670        C  0.97253905  0.45787398  0.99889572    -0.12300
C671        C  0.99134592  0.47851500  0.02856195     0.01800
C672        C  0.00273296  0.53155569  0.03150202    -0.00500
C673        C  0.99309378  0.56270787  0.00454853    -0.12200
C674        C  0.97499903  0.54238354  0.97500666     0.01700
H675        H  0.96537036  0.41678993  0.99695818     0.14700
H676        H  0.00031727  0.60383219  0.00627348     0.14700
C677        C  0.96847929  0.57782132  0.94873712     0.36400
C678        C  0.00067452  0.44408759  0.05491414     0.36300
N679        N  0.96369664  0.60636827  0.92774085    -0.44000
N680        N  0.00827934  0.41636801  0.07598803    -0.44000
C681        C  0.96920318  0.54779448  0.79138303    -0.00400
C682        C  0.93218167  0.52173632  0.77243134    -0.12300
C683        C  0.93016753  0.52826831  0.73828409     0.01800
C684        C  0.96615211  0.56042246  0.72211503    -0.00500
C685        C  0.99562317  0.59385828  0.74190060    -0.12200
C686        C  0.99801153  0.58725453  0.77601068     0.01700
H687        H  0.90889331  0.49188952  0.78347064     0.14700
H688        H  0.02295123  0.61963295  0.73038553     0.14700
C689        C  0.03449421  0.61781792  0.79435898     0.36400
C690        C  0.89410756  0.49775435  0.71960419     0.36300
N691        N  0.06362921  0.64212456  0.80928063    -0.44000
N692        N  0.86494031  0.47361642  0.70458938    -0.44000
C693        C  0.50902430  0.51164070  0.53929221    -0.00400
C694        C  0.45991694  0.53342964  0.53880172    -0.12300
C695        C  0.43799172  0.54803298  0.50932053     0.01800
C696        C  0.46506213  0.54046964  0.47954309    -0.00500
C697        C  0.51486047  0.52073931  0.48012248    -0.12200
C698        C  0.53718562  0.50700175  0.50950666     0.01700
H699        H  0.43760805  0.53661475  0.56116796     0.14700
H700        H  0.53693945  0.51717839  0.45759347     0.14700
C701        C  0.58927458  0.48817215  0.50826371     0.36400
C702        C  0.38664430  0.56848851  0.50989207     0.36300
N703        N  0.63092969  0.47299576  0.50719010    -0.44000
N704        N  0.34544821  0.58478606  0.50985793    -0.44000
C705        C  0.33746036  0.48461630  0.63251305    -0.00400
C706        C  0.33582108  0.52636791  0.61120346    -0.12300
C707        C  0.28950606  0.55181948  0.60536009     0.01800
C708        C  0.24393104  0.53515716  0.62074668    -0.00500
C709        C  0.24507954  0.49169564  0.64040631    -0.12200
C710        C  0.29094717  0.46623106  0.64622513     0.01700
H711        H  0.37105761  0.54073360  0.60037222     0.14700
H712        H  0.21014106  0.47869940  0.65240271     0.14700
C713        C  0.28880140  0.42120738  0.66629055     0.36400
C714        C  0.29021472  0.59721936  0.58571571     0.36300
N715        N  0.28683027  0.38510009  0.68230500    -0.44000
N716        N  0.29044659  0.63378022  0.57010150    -0.44000
C717        C  0.53027761  0.46721460  0.04287051    -0.00400
C718        C  0.50141206  0.51242953  0.04359203    -0.12300
C719        C  0.48388010  0.53391812  0.01491937     0.01800
C720        C  0.49194629  0.50820363  0.98439522    -0.00500
C721        C  0.52360801  0.46466167  0.98332065    -0.12200
C722        C  0.54391277  0.44493319  0.01213507     0.01700
H723        H  0.49367093  0.53207747  0.06670680     0.14700
H724        H  0.53122684  0.44507845  0.96019097     0.14700
C725        C  0.57810747  0.40160012  0.00947159     0.36400
C726        C  0.45855364  0.58319891  0.01773933     0.36300
N727        N  0.60628853  0.36745025  0.00737594    -0.44000
N728        N  0.43867745  0.62280918  0.02019120    -0.44000
C729        C  0.15084074  0.55034083  0.76402347    -0.00400
C730        C  0.15482773  0.50022035  0.77555176    -0.12300
C731        C  0.19375900  0.48814444  0.79683781     0.01800
C732        C  0.22792866  0.52747159  0.80719724    -0.00500
C733        C  0.21735510  0.57905928  0.79993135    -0.12200
C734        C  0.17954161  0.59062362  0.77798277     0.01700
H735        H  0.13139413  0.46943401  0.76519850     0.14700
H736        H  0.24134375  0.61028973  0.80904020     0.14700
C737        C  0.17397929  0.64316874  0.76781639     0.36400
C738        C  0.19928634  0.43496487  0.80566517     0.36300
N739        N  0.16933276  0.68487702  0.75906585    -0.44000
N740        N  0.20353344  0.39227911  0.81258893    -0.44000
C741        C  0.13545960  0.49419883  0.90328166    -0.00400
C742        C  0.14140242  0.54493003  0.91498701    -0.12300
C743        C  0.18799098  0.56108927  0.92880654     0.01800
C744        C  0.22918129  0.52627670  0.93085262    -0.00500
C745        C  0.21999050  0.47397699  0.92408572    -0.10600
C746        C  0.17354065  0.45770733  0.91031987     0.01700
H747        H  0.11170156  0.57291748  0.91068837     0.14700
H748        H  0.25122227  0.44680944  0.92572903     0.14700
C749        C  0.16683831  0.40377861  0.90202000     0.36400
C750        C  0.19499552  0.61485548  0.93729586     0.36300
N751        N  0.16119774  0.36056667  0.89552197    -0.44000
N752        N  0.20058218  0.65787915  0.94430439    -0.44000
C753        C  0.47645503  0.51772185  0.79578731    -0.00400
C754        C  0.51414555  0.48077088  0.78831625    -0.12300
C755        C  0.52749340  0.46785091  0.75561808     0.01800
C756        C  0.50318287  0.49190105  0.72910298    -0.00500
C757        C  0.47167572  0.53431485  0.73678238    -0.12200
C758        C  0.45849492  0.54732344  0.76956130     0.01700
H759        H  0.52824784  0.45711553  0.80768923     0.14700
H760        H  0.45217695  0.55331906  0.71725129     0.14700
C761        C  0.42139222  0.58751115  0.77567076     0.36400
C762        C  0.56143469  0.42483915  0.74981244     0.36300
N763        N  0.39167777  0.61965901  0.78080589    -0.44000
N764        N  0.58845219  0.39020912  0.74526324    -0.44000
C765        C  0.69035313  0.29950179  0.64199872    -0.00400
C766        C  0.70013717  0.26699781  0.61468663    -0.12300
C767        C  0.73729558  0.22840894  0.61497279     0.01800
C768        C  0.76771401  0.22183810  0.64279737    -0.00500
C769        C  0.75525701  0.25121006  0.67111898    -0.12200
C770        C  0.71717706  0.28980248  0.67093442     0.01700
H771        H  0.67818084  0.27127445  0.59265679     0.14700
H772        H  0.77664084  0.24540385  0.69317099     0.14700
C773        C  0.70809261  0.32010021  0.70025256     0.36400
C774        C  0.74212889  0.19512386  0.58645905     0.36300
N775        N  0.70091539  0.34442360  0.72379299    -0.44000
N776        N  0.74557352  0.16822054  0.56371143    -0.44000
C777        C  0.00214430  0.04320776  0.54696049    -0.00400
C778        C  0.00995930  0.07576375  0.52015366    -0.12300
C779        C  0.02812321  0.05741491  0.48973780     0.01800
C780        C  0.03812077  0.00441476  0.48466644    -0.00500
C781        C  0.03404885  0.97236141  0.51215989    -0.12200
C782        C  0.01704107  0.99131372  0.54303550     0.01700
H783        H  0.00141780  0.11644212  0.52280339     0.14700
H784        H  0.04317574  0.93185280  0.50951465     0.14700
C785        C  0.01419137  0.95644502  0.56987899     0.36400
C786        C  0.03655266  0.09452944  0.46449138     0.36300
N787        N  0.01244120  0.92848869  0.59144904    -0.44000
N788        N  0.04372726  0.12452252  0.44445685    -0.44000
C789        C  0.96380544  0.28876853  0.61363195    -0.00400
C790        C  0.01754140  0.29291570  0.61217897    -0.12300
C791        C  0.04228504  0.34064006  0.61762655     0.01800
C792        C  0.01308369  0.38547550  0.62433442    -0.00500
C793        C  0.95934666  0.38157022  0.62381030    -0.12200
C794        C  0.93471940  0.33397670  0.61852015     0.01700
H795        H  0.04030090  0.25834410  0.60900411     0.14700
H796        H  0.93639634  0.41510622  0.62986199     0.14700
C797        C  0.87932004  0.33205027  0.61947039     0.36400
C798        C  0.09769286  0.34232102  0.61729520     0.36300
N799        N  0.83492159  0.33057407  0.62008048    -0.44000
N800        N  0.14210581  0.34368140  0.61703062    -0.44000
C801        C  0.00852185  0.37203554  0.73712479    -0.00400
C802        C  0.96112846  0.36887621  0.72208361    -0.12300
C803        C  0.93987879  0.32056933  0.71557000     0.01800
C804        C  0.96952061  0.27601043  0.72126478    -0.00500
C805        C  0.02243818  0.28201507  0.72656643    -0.12200
C806        C  0.04263981  0.33114809  0.73245482     0.01700
H807        H  0.93638069  0.40212782  0.72290532     0.14700
H808        H  0.04728742  0.24883092  0.72751794     0.14700
C809        C  0.09645864  0.33808296  0.73911393     0.36400
C810        C  0.88647485  0.31906836  0.70686862     0.36300
N811        N  0.13973300  0.34422625  0.74400671    -0.44000
N812        N  0.84362767  0.31984956  0.69997599    -0.44000
C813        C  0.29523904  0.70868768  0.88954141    -0.00400
C814        C  0.26533583  0.71704622  0.86173957    -0.12300
C815        C  0.23061958  0.75848723  0.86063878     0.01800
C816        C  0.22496641  0.79257689  0.88781802    -0.00500
C817        C  0.25473002  0.78369120  0.91542716    -0.12200
C818        C  0.28985792  0.74352586  0.91638194     0.01700
H819        H  0.26797055  0.69040541  0.84111997     0.14700
H820        H  0.25153617  0.80906582  0.93665576     0.14700
C821        C  0.32006258  0.73995974  0.94554443     0.36400
C822        C  0.20018801  0.76409827  0.83185017     0.36300
N823        N  0.34395876  0.73734622  0.96901732    -0.44000
N824        N  0.17534386  0.76923010  0.80900419    -0.44000
C825        C  0.99355065  0.05094131  0.04245035    -0.00400
C826        C  0.04581003  0.05894322  0.03591299    -0.12300
C827        C  0.06836825  0.04243525  0.00628756     0.01800
C828        C  0.03843215  0.01775595  0.98165355    -0.00500
C829        C  0.98601831  0.00969566  0.98810338    -0.12200
C830        C  0.96372048  0.02502302  0.01828007     0.01700
H831        H  0.06939357  0.07801730  0.05417308     0.14700
H832        H  0.96302880  0.98896482  0.97025078     0.14700
C833        C  0.91133838  0.00943906  0.02482179     0.36400
C834        C  0.12293327  0.05092741  0.00221602     0.36300
N835        N  0.86963435  0.99621283  0.03023920    -0.44000
N836        N  0.16675716  0.05726653  0.99933287    -0.44000
C837        C  0.97657844  0.01697132  0.73245211    -0.00400
C838        C  0.95139381  0.03523358  0.76118066    -0.12300
C839        C  0.96778451  0.02153416  0.79259362     0.01800
C840        C  0.00929282  0.98766711  0.79616332    -0.00500
C841        C  0.02694126  0.96154983  0.76752329    -0.12200
C842        C  0.01109080  0.97590444  0.73605657     0.01700
H843        H  0.92452948  0.06669336  0.75929330     0.14700
H844        H  0.05876560  0.93513408  0.76937170     0.14700
C845        C  0.03552092  0.95247252  0.70774397     0.36400
C846        C  0.94749779  0.04926364  0.82067084     0.36300
N847        N  0.05465570  0.93332679  0.68499332    -0.44000
N848        N  0.93168023  0.07133347  0.84338602    -0.44000
C849        C  0.07152980  0.16421913  0.87525154    -0.00400
C850        C  0.08776133  0.20532106  0.85577450    -0.12300
C851        C  0.06310203  0.25297908  0.85745585     0.01800
C852        C  0.02157539  0.26102318  0.87944692    -0.00500
C853        C  0.00814273  0.22196555  0.90092304    -0.12200
C854        C  0.03203653  0.17378882  0.89887593     0.01700
H855        H  0.11854110  0.19981191  0.83803471     0.14700
H856        H  0.97629273  0.22783472  0.91786368     0.14700
C857        C  0.01241902  0.13481845  0.92028572     0.36400
C858        C  0.08083950  0.29264004  0.83581686     0.36300
N859        N  0.99541987  0.10435119  0.93757143    -0.44000
N860        N  0.09539424  0.32416428  0.81841124    -0.44000
C861        C  0.20910032  0.73655732  0.65957404    -0.00400
C862        C  0.25487677  0.73618992  0.64096382    -0.12300
C863        C  0.28983148  0.77762542  0.64168306     0.01800
C864        C  0.28021786  0.82201242  0.66131719    -0.00500
C865        C  0.23599545  0.82158735  0.68163416    -0.12200
C866        C  0.20076451  0.77932927  0.68102592     0.01700
H867        H  0.26293993  0.70351249  0.62487636     0.14700
H868        H  0.22737970  0.85537585  0.69660093     0.14700
C869        C  0.15481534  0.78241613  0.70089603     0.36400
C870        C  0.33510465  0.77417451  0.62105641     0.36300
N871        N  0.11796074  0.78497461  0.71687763    -0.44000
N872        N  0.37134240  0.77140339  0.60452308    -0.44000
C873        C  0.50518493  0.03977992  0.47432343    -0.00400
C874        C  0.46931504  0.99893816  0.47330824    -0.12300
C875        C  0.44789746  0.97878799  0.50225143     0.01800
C876        C  0.46313983  0.99856758  0.53311928    -0.00500
C877        C  0.49726466  0.04041053  0.53404235    -0.12200
C878        C  0.51741667  0.06157193  0.50543370     0.01700
H879        H  0.45926342  0.98150181  0.45000434     0.14700
H880        H  0.50766218  0.05751223  0.55740562     0.14700
C881        C  0.55041173  0.10620914  0.50921541     0.36400
C882        C  0.41183358  0.93654539  0.49971207     0.36300
N883        N  0.57684471  0.14187236  0.51254884    -0.44000
N884        N  0.38268048  0.90283400  0.49791221    -0.44000
C885        C  0.24104498  0.03496541  0.63605789    -0.00400
C886        C  0.23710947  0.07129330  0.66189853    -0.12300
C887        C  0.19113512  0.09737159  0.66884735     0.01800
C888        C  0.14696388  0.08661670  0.65000878    -0.00500
C889        C  0.15216139  0.05249016  0.62289472    -0.12200
C890        C  0.19836600  0.02691531  0.61583376     0.01700
H891        H  0.26993968  0.07831934  0.67742433     0.14700
H892        H  0.11939703  0.04403518  0.60761093     0.14700
C893        C  0.19955602  0.98977892  0.58918460     0.36400
C894        C  0.19069563  0.13369538  0.69598768     0.36300
N895        N  0.20036562  0.95997441  0.56783463    -0.44000
N896        N  0.19068868  0.16295601  0.71765125    -0.44000
C897        C  0.35914088  0.01419623  0.76941366    -0.00400
C898        C  0.35786547  0.97074840  0.78870067    -0.12300
C899        C  0.31190480  0.95623663  0.80362563     0.01800
C900        C  0.26737784  0.98610673  0.79849590    -0.00500
C901        C  0.27298881  0.03552970  0.78581302    -0.12200
C902        C  0.31969740  0.05050593  0.77220146     0.01700
H903        H  0.38976995  0.94412957  0.78773515     0.14700
H904        H  0.24024075  0.06084449  0.78427493     0.14700
C905        C  0.32296070  0.09847314  0.75514170     0.36400
C906        C  0.31123913  0.90869108  0.82127657     0.36300
N907        N  0.32576847  0.13667288  0.74125102    -0.44000
N908        N  0.31107750  0.87080397  0.83560977    -0.44000
C909        C  0.48590878  0.15690771  0.61479965    -0.00400
C910        C  0.45071994  0.19470214  0.60604135    -0.12300
C911        C  0.46774104  0.24178837  0.59357682     0.01800
C912        C  0.52077339  0.25207832  0.59064167    -0.00500
C913        C  0.55539414  0.21182152  0.59560612    -0.12200
C914        C  0.53850242  0.16460404  0.60787462     0.01700
H915        H  0.41005985  0.18850139  0.61057331     0.14700
H916        H  0.59629030  0.21962283  0.59411778     0.14700
C917        C  0.57640798  0.12761641  0.61719913     0.36400
C918        C  0.43047184  0.28111713  0.58740323     0.36300
N919        N  0.60680237  0.09817485  0.62493757    -0.44000
N920        N  0.40060285  0.31265178  0.58242598    -0.44000
C921        C  0.81926255  0.28382248  0.83631024    -0.00400
C922        C  0.76862444  0.30160808  0.83392421    -0.12300
C923        C  0.72615188  0.26743473  0.83515735     0.01800
C924        C  0.73340266  0.21380809  0.83847432    -0.00500
C925        C  0.78413265  0.19571063  0.83931479    -0.12200
C926        C  0.82659304  0.23000552  0.83842346     0.01700
H927        H  0.76197698  0.34272426  0.83336938     0.14700
H928        H  0.79061419  0.15496085  0.84247395     0.14700
C929        C  0.87754557  0.20943339  0.84162690     0.36400
C930        C  0.67517142  0.28882157  0.83528283     0.36300
N931        N  0.91849247  0.19318969  0.84418016    -0.44000
N932        N  0.63440395  0.30621125  0.83550274    -0.44000
C933        C  0.54968983  0.02904495  0.96732726    -0.00400
C934        C  0.50964414  0.99262817  0.96688793    -0.12300
C935        C  0.48915990  0.97224014  0.99573332     0.01800
C936        C  0.50937202  0.98699938  0.02664868    -0.00500
C937        C  0.54841062  0.02465283  0.02728873    -0.12200
C938        C  0.56835458  0.04579691  0.99825063     0.01700
H939        H  0.49329143  0.98054097  0.94376343     0.14700
H940        H  0.56457437  0.03659546  0.05048350     0.14700
C941        C  0.60904497  0.08354074  0.00113432     0.36400
C942        C  0.44639903  0.93683257  0.99248497     0.36300
N943        N  0.64157036  0.11388906  0.00360961    -0.44000
N944        N  0.41218566  0.90850112  0.98966396    -0.44000
C945        C  0.28453481  0.99540690  0.90731191    -0.00400
C946        C  0.28569179  0.04486025  0.89417535    -0.12300
C947        C  0.33142911  0.06615572  0.88169688     0.01800
C948        C  0.37825450  0.03890206  0.88386892    -0.00500
C949        C  0.37747540  0.99116363  0.89935092    -0.12200
C950        C  0.33120132  0.96870834  0.90990770     0.01700
H951        H  0.25000091  0.06521070  0.89101531     0.14700
H952        H  0.41256863  0.96920178  0.90084542     0.14700
C953        C  0.33218924  0.91613336  0.92034772     0.36400
C954        C  0.32811483  0.11444327  0.86503846     0.36300
N955        N  0.33390691  0.87376635  0.92828791    -0.44000
N956        N  0.32514822  0.15268514  0.85124594    -0.44000
C957        C  0.53198909  0.15846382  0.73952885    -0.00400
C958        C  0.48004146  0.17132886  0.73757520    -0.12300
C959        C  0.46572487  0.21418861  0.72031390     0.01800
C960        C  0.50428942  0.24312286  0.70456715    -0.00500
C961        C  0.55428413  0.22308743  0.70120683    -0.12200
C962        C  0.56855640  0.18106957  0.71909529     0.01700
H963        H  0.45174217  0.15214637  0.75281384     0.14700
H964        H  0.58341981  0.24275741  0.68689761     0.14700
C965        C  0.62125755  0.16412860  0.71816773     0.36400
C966        C  0.41280572  0.23022094  0.72215964     0.36300
N967        N  0.66334390  0.15017859  0.71737790    -0.44000
N968        N  0.37047333  0.24335723  0.72351296    -0.44000
C969        C  0.53097091  0.25777570  0.87812394    -0.00400
C970        C  0.50054275  0.26674419  0.85086646    -0.12300
C971        C  0.47040994  0.31057170  0.84880408     0.01800
C972        C  0.46976937  0.34757332  0.87469798    -0.00500
C973        C  0.49939968  0.33807757  0.90248924    -0.12200
C974        C  0.52991511  0.29374572  0.90433824     0.01700
H975        H  0.50031981  0.23912105  0.83064695     0.14700
H976        H  0.49961115  0.36577633  0.92261689     0.14700
C977        C  0.56142457  0.28731283  0.93257497     0.36400
C978        C  0.44070029  0.31557228  0.81954084     0.36300
N979        N  0.58688955  0.28190726  0.95511354    -0.44000
N980        N  0.41720504  0.31920392  0.79596997    -0.44000
C981        C  0.53410657  0.97530296  0.71267271    -0.00400
C982        C  0.57555229  0.00190282  0.72744059    -0.12300
C983        C  0.58409386  0.00021790  0.76147240     0.01800
C984        C  0.54839294  0.97503084  0.78209592    -0.00500
C985        C  0.51304806  0.94129125  0.76663543    -0.12200
C986        C  0.50665291  0.94031720  0.73239752     0.01700
H987        H  0.59818121  0.02834173  0.71293440     0.14700
H988        H  0.48599352  0.92011277  0.78162895     0.14700
C989        C  0.46711446  0.90768758  0.71873923     0.36400
C990        C  0.62502248  0.03118454  0.77505497     0.36300
N991        N  0.43581885  0.88083879  0.70789947    -0.44000
N992        N  0.65809521  0.05592693  0.78574292    -0.44000
loop_ 
_geom_bond_atom_site_label_1 
_geom_bond_atom_site_label_2 
_geom_bond_distance 
_geom_bond_site_symmetry_2 
_ccdc_geom_bond_type 
O1           Ni7   1.895       .  S
O1           C22   1.262       .  A
O2          Ni25   1.906       .  S
O2           C11   1.283       .  A
O3           Ni7   1.883       .  S
O3          Ni25   1.865       .  S
O3          Ni19   1.935       .  S
O3           H26   0.964       .  S
C4           O21   1.288       .  A
C4           O13   1.287       .  A
C4          C924   1.507       .  S
O5          Ni24   1.965       .  S
O5           C11   1.287       .  A
O6          Ni24   1.931       .  S
O6            C8   1.273       .  A
Ni7          O10   1.909       .  S
Ni7          O12   1.900       .  S
C8           O18   1.268       .  A
C8          C969   1.486       .  S
O9          Ni25   1.960       .  S
O9           C15   1.288       .  A
O10          C15   1.276       .  A
C11         C933   1.508       .  S
O12          C14   1.257       .  A
O13         Ni24   1.966       .  S
C14          O20   1.291       .  A
C14         C984   1.514   1_545  S
C15         C948   1.496       .  S
H16          O17   0.966       .  S
O17         Ni25   1.920       .  S
O17         Ni19   1.891       .  S
O17         Ni24   1.896       .  S
O18         Ni19   1.914       .  S
Ni19         O23   1.900       .  S
Ni19         O21   1.944       .  S
O20         Ni25   2.006       .  S
C22          O23   1.276       .  A
C22         C957   1.437       .  S
O27         Ni33   1.911       .  S
O27          C48   1.268       .  A
O28         Ni51   1.898   1_565  S
O28          C37   1.281       .  A
O29         Ni33   1.887       .  S
O29         Ni51   1.873       .  S
O29         Ni45   1.927   1_545  S
O29          H52   0.965       .  S
C30          O47   1.294       .  A
C30          O39   1.286       .  A
C30         C864   1.511       .  S
O31         Ni50   1.962       .  S
O31          C37   1.286       .  A
O32         Ni50   1.936       .  S
O32          C34   1.274   1_565  A
Ni33         O36   1.920       .  S
Ni33         O38   1.910       .  S
C34          O44   1.266   1_545  A
C34         C885   1.488       .  S
O35         Ni51   1.939       .  S
O35          C41   1.277       .  A
O36          C41   1.275       .  A
C37         C876   1.497       .  S
O38          C40   1.263   1_545  A
O39         Ni50   1.949       .  S
C40          O46   1.292       .  A
C40         C981   1.514       .  S
C41         C909   1.479       .  S
H42          O43   0.967       .  S
O43         Ni51   1.903   1_565  S
O43         Ni45   1.885       .  S
O43         Ni50   1.888       .  S
O44         Ni45   1.912       .  S
Ni45         O49   1.890       .  S
Ni45         O47   1.962       .  S
O46         Ni51   1.996   1_565  S
C48          O49   1.278   1_545  A
C48         C897   1.440       .  S
O53         Ni59   1.885   1_565  S
O53          C74   1.262       .  A
O54         Ni77   1.934   1_565  S
O54          C63   1.287       .  A
O55         Ni59   1.893       .  S
O55         Ni77   1.891       .  S
O55         Ni71   1.967   1_545  S
O55          H78   0.961       .  S
C56          O73   1.278       .  A
C56          O65   1.283       .  A
C56         C816   1.501       .  S
O57         Ni76   1.927       .  S
O57          C63   1.276       .  A
O58         Ni76   1.943       .  S
O58          C60   1.269       .  A
Ni59         O62   1.925       .  S
Ni59         O64   1.885       .  S
C60          O70   1.258       .  A
C60         C945   1.481       .  S
O61         Ni77   1.917       .  S
O61          C67   1.270       .  A
O62          C67   1.276       .  A
C63         C828   1.500   1_565  S
O64          C66   1.270       .  A
O65         Ni76   1.944       .  S
C66          O72   1.305   1_545  A
C66         C840   1.505   1_545  S
C67         C849   1.499       .  S
H68          O69   0.966       .  S
O69         Ni77   1.914   1_565  S
O69         Ni71   1.888       .  S
O69         Ni76   1.908       .  S
O70         Ni71   1.920       .  S
Ni71         O75   1.881       .  S
Ni71         O73   1.916       .  S
O72         Ni77   2.008   1_565  S
C74          O75   1.250       .  A
C74         C900   1.467       .  S
O79         Ni85   1.885   1_655  S
O79         C100   1.262       .  A
O80        Ni103   1.933       .  S
O80          C89   1.285       .  A
O81         Ni85   1.902   1_655  S
O81        Ni103   1.893       .  S
O81         Ni97   1.973       .  S
O81         H104   0.962       .  S
C82          O99   1.276       .  A
C82          O91   1.284       .  A
C82         C768   1.504       .  S
O83        Ni102   1.933       .  S
O83          C89   1.278       .  A
O84        Ni102   1.935       .  S
O84          C86   1.268       .  A
Ni85         O88   1.930       .  S
Ni85         O90   1.889       .  S
C86          O96   1.264       .  A
C86         C789   1.484       .  S
O87        Ni103   1.912   1_455  S
O87          C93   1.271       .  A
O88          C93   1.275       .  A
C89         C777   1.510   1_655  S
O90          C92   1.270   1_455  A
O91        Ni102   1.957       .  S
C92          O98   1.304       .  A
C92         C837   1.508       .  S
C93         C888   1.501       .  S
H94          O95   0.966       .  S
O95        Ni103   1.923       .  S
O95         Ni97   1.896       .  S
O95        Ni102   1.910       .  S
O96         Ni97   1.931       .  S
Ni97        O101   1.889       .  S
Ni97         O99   1.918       .  S
O98        Ni103   2.008       .  S
C100        O101   1.249       .  A
C100        C804   1.469       .  S
O105       Ni111   1.913       .  S
O105        C126   1.268       .  A
O106       Ni129   1.921       .  S
O106        C115   1.285       .  A
O107       Ni111   1.874       .  S
O107       Ni129   1.880       .  S
O107       Ni123   1.952       .  S
O107        H130   0.965       .  S
C108        O125   1.282       .  A
C108        O117   1.282       .  A
C108        C813   1.499       .  S
O109       Ni128   1.926       .  S
O109        C115   1.278       .  A
O110       Ni128   1.934       .  S
O110        C112   1.268       .  A
Ni111       O114   1.924       .  S
Ni111       O116   1.889       .  S
C112        O122   1.260       .  A
C112        C744   1.471       .  S
O113       Ni129   1.917       .  S
O113        C119   1.265       .  A
O114        C119   1.266       .  A
C115        C720   1.492       .  S
O116        C118   1.277       .  A
O117       Ni128   1.942       .  S
C118        O124   1.314       .  A
C118        C753   1.509       .  S
C119        C972   1.494       .  S
H120        O121   0.967       .  S
O121       Ni129   1.894       .  S
O121       Ni123   1.863       .  S
O121       Ni128   1.890       .  S
O122       Ni123   1.909       .  S
Ni123       O127   1.866       .  S
Ni123       O125   1.924       .  S
O124       Ni129   2.034       .  S
C126        O127   1.259       .  A
C126        C732   1.465       .  S
O131       Ni137   1.914       .  S
O131        C152   1.268       .  A
O132       Ni155   1.909       .  S
O132        C141   1.284       .  A
O133       Ni137   1.872       .  S
O133       Ni155   1.860       .  S
O133       Ni149   1.952       .  S
O133        H156   0.962       .  S
C134        O151   1.285       .  A
C134        O143   1.283       .  A
C134        C765   1.505       .  S
O135       Ni154   1.928       .  S
O135        C141   1.279       .  A
O136       Ni154   1.940       .  S
O136        C138   1.271       .  A
Ni137       O140   1.923       .  S
Ni137       O142   1.887       .  S
C138        O148   1.260       .  A
C138        C912   1.471       .  S
O139       Ni155   1.915       .  S
O139        C145   1.263       .  A
O140        C145   1.267       .  A
C141        C693   1.488       .  S
O142        C144   1.280       .  A
O143       Ni154   1.940       .  S
C144        O150   1.317       .  A
C144        C756   1.512       .  S
C145        C705   1.486       .  S
H146        O147   0.966       .  S
O147       Ni155   1.901       .  S
O147       Ni149   1.864       .  S
O147       Ni154   1.893       .  S
O148       Ni149   1.906       .  S
Ni149       O153   1.867       .  S
Ni149       O151   1.935       .  S
O150       Ni155   2.038       .  S
C152        O153   1.259       .  A
C152        C960   1.460       .  S
O157       Ni163   1.911       .  S
O157        C178   1.269       .  A
O158       Ni181   1.889       .  S
O158        C167   1.276       .  A
O159       Ni163   1.883       .  S
O159       Ni181   1.870   1_455  S
O159       Ni175   1.916   1_455  S
O159        H182   0.964       .  S
C160        O177   1.294       .  A
C160        O169   1.285       .  A
C160        C921   1.505       .  S
O161       Ni180   1.963       .  S
O161        C167   1.286       .  A
O162       Ni180   1.929       .  S
O162        C164   1.273       .  A
Ni163       O166   1.911       .  S
Ni163       O168   1.910       .  S
C164        O174   1.267       .  A
C164        C852   1.481   1_655  S
O165       Ni181   1.945   1_455  S
O165        C171   1.279       .  A
O166        C171   1.274       .  A
C167        C669   1.504       .  S
O168        C170   1.265   1_455  A
O169       Ni180   1.951       .  S
C170        O176   1.288       .  A
C170        C681   1.511       .  S
C171        C741   1.481       .  S
H172        O173   0.967       .  S
O173       Ni181   1.901       .  S
O173       Ni175   1.887       .  S
O173       Ni180   1.891       .  S
O174       Ni175   1.915       .  S
Ni175       O179   1.901       .  S
Ni175       O177   1.958       .  S
O176       Ni181   1.987       .  S
C178        O179   1.282   1_455  A
C178        C801   1.449       .  S
O183       Ni189   1.902       .  S
O183        C204   1.266       .  A
O184       Ni207   1.904       .  S
O184        C193   1.283       .  A
O185       Ni189   1.880       .  S
O185       Ni207   1.864       .  S
O185       Ni201   1.933       .  S
O185        H208   0.963       .  S
C186        O203   1.289       .  A
C186        O195   1.286       .  A
C186        C861   1.516       .  S
O187       Ni206   1.954       .  S
O187        C193   1.285       .  A
O188       Ni206   1.931       .  S
O188        C190   1.272       .  A
Ni189       O192   1.913       .  S
Ni189       O194   1.903       .  S
C190        O200   1.265       .  A
C190        C708   1.474       .  S
O191       Ni207   1.968       .  S
O191        C197   1.288       .  A
O192        C197   1.275       .  A
C193        C660   1.502       .  S
O194        C196   1.260   1_455  A
O195       Ni206   1.956       .  S
C196        O202   1.291   1_655  A
C196        C684   1.507       .  S
C197        C792   1.491       .  S
H198        O199   0.966       .  S
O199       Ni207   1.921       .  S
O199       Ni201   1.885       .  S
O199       Ni206   1.893       .  S
O200       Ni201   1.912       .  S
Ni201       O205   1.885       .  S
Ni201       O203   1.955       .  S
O202       Ni207   1.999       .  S
C204        O205   1.273       .  A
C204        C729   1.443       .  S
O209       Ni215   1.943       .  S
O209        C230   1.283       .  A
O210       Ni233   1.862       .  S
O210        C219   1.271       .  A
O211       Ni215   1.895       .  S
O211       Ni233   1.875       .  S
O211       Ni227   1.922       .  S
O211        H234   0.966       .  S
C212        O229   1.282       .  A
C212        O221   1.277       .  A
C212        C609   1.489       .  S
O213       Ni232   1.920       .  S
O213        C219   1.272       .  A
O214       Ni232   1.903       .  S
O214        C216   1.261       .  A
Ni215       O218   1.949       .  S
Ni215       O220   1.933       .  S
C216        O226   1.296       .  A
C216        C645   1.514       .  S
O217       Ni233   1.958       .  S
O217        C223   1.291       .  A
O218        C223   1.285       .  A
C219        C633   1.447       .  S
O220        C222   1.273       .  A
O221       Ni232   1.923       .  S
C222        O228   1.263       .  A
C222        C621   1.476       .  S
C223        C597   1.517       .  S
H224        O225   0.965       .  S
O225       Ni233   1.926       .  S
O225       Ni227   1.861       .  S
O225       Ni232   1.879       .  S
O226       Ni227   2.007       .  S
Ni227       O231   1.897       .  S
Ni227       O229   1.953       .  S
O228       Ni233   1.901       .  S
C230        O231   1.282       .  A
C230        C696   1.480       .  S
O235       Ni241   1.954       .  S
O235        C256   1.285       .  A
O236       Ni259   1.877       .  S
O236        C245   1.276       .  A
O237       Ni241   1.891       .  S
O237       Ni259   1.877       .  S
O237       Ni253   1.917       .  S
O237        H260   0.967       .  S
C238        O255   1.284       .  A
C238        O247   1.277       .  A
C238        C585   1.497       .  S
O239       Ni258   1.919       .  S
O239        C245   1.272       .  A
O240       Ni258   1.900       .  S
O240        C242   1.259       .  A
Ni241       O244   1.955       .  S
Ni241       O246   1.933       .  S
C242        O252   1.294       .  A
C242        C648   1.519       .  S
O243       Ni259   1.957       .  S
O243        C249   1.291       .  A
O244        C249   1.285       .  A
C245        C573   1.450       .  S
O246        C248   1.274       .  A
O247       Ni258   1.925       .  S
C248        O254   1.267       .  A
C248        C561   1.492       .  S
C249        C549   1.512       .  S
H250        O251   0.964       .  S
O251       Ni259   1.928       .  S
O251       Ni253   1.863       .  S
O251       Ni258   1.878       .  S
O252       Ni253   2.011       .  S
Ni253       O257   1.894       .  S
Ni253       O255   1.962       .  S
O254       Ni259   1.918       .  S
C256        O257   1.282       .  A
C256        C717   1.489       .  S
O261       Ni267   1.940       .  S
O261        C282   1.281       .  A
O262       Ni285   1.880       .  S
O262        C271   1.263       .  A
O263       Ni267   1.905       .  S
O263       Ni285   1.876       .  S
O263       Ni279   1.900       .  S
O263        H286   0.966       .  S
C264        O281   1.261       .  A
C264        O273   1.265       .  A
C264        C624   1.482       .  S
O265       Ni284   1.897       .  S
O265        C271   1.267   1_565  A
O266       Ni284   1.889   1_545  S
O266        C268   1.276       .  A
Ni267       O270   1.953       .  S
Ni267       O272   1.944       .  S
C268        O278   1.320       .  A
C268        C537   1.520       .  S
O269       Ni285   1.936       .  S
O269        C275   1.283       .  A
O270        C275   1.285       .  A
C271        C525   1.453       .  S
O272        C274   1.270       .  A
O273       Ni284   1.919       .  S
C274        O280   1.260       .  A
C274        C516   1.485       .  S
C275        C501   1.508       .  S
H276        O277   0.962   1_565  S
O277       Ni285   1.947       .  S
O277       Ni279   1.870       .  S
O277       Ni284   1.877   1_545  S
O278       Ni279   2.053       .  S
Ni279       O283   1.922       .  S
Ni279       O281   1.910   1_545  S
O280       Ni285   1.913       .  S
C282        O283   1.286       .  A
C282        C873   1.507       .  S
O287       Ni293   1.946       .  S
O287        C308   1.283       .  A
O288       Ni311   1.866       .  S
O288        C297   1.256       .  A
O289       Ni293   1.894       .  S
O289       Ni311   1.863       .  S
O289       Ni305   1.901       .  S
O289        H312   0.967       .  S
C290        O307   1.264       .  A
C290        O299   1.269       .  A
C290        C489   1.487       .  S
O291       Ni310   1.905       .  S
O291        C297   1.269       .  A
O292       Ni310   1.880       .  S
O292        C294   1.274       .  A
Ni293       O296   1.954       .  S
Ni293       O298   1.948       .  S
C294        O304   1.321       .  A
C294        C540   1.519   1_565  S
O295       Ni311   1.937       .  S
O295        C301   1.286       .  A
O296        C301   1.286       .  A
C297        C636   1.453       .  S
O298        C300   1.273       .  A
O299       Ni310   1.929       .  S
C300        O306   1.261       .  A
C300        C588   1.486       .  S
C301        C477   1.512       .  S
H302        O303   0.964       .  S
O303       Ni311   1.963       .  S
O303       Ni305   1.876       .  S
O303       Ni310   1.876       .  S
O304       Ni305   2.053       .  S
Ni305       O309   1.927       .  S
Ni305       O307   1.914       .  S
O306       Ni311   1.920       .  S
C308        O309   1.289       .  A
C308        C936   1.509       .  S
O313       Ni319   1.933       .  S
O313        C334   1.281       .  A
O314       Ni337   1.889       .  S
O314        C323   1.266       .  A
O315       Ni319   1.902       .  S
O315       Ni337   1.881       .  S
O315       Ni331   1.905       .  S
O315        H338   0.966       .  S
C316        O333   1.263       .  A
C316        O325   1.265       .  A
C316        C564   1.494       .  S
O317       Ni336   1.889       .  S
O317        C323   1.266   1_655  A
O318       Ni336   1.888   1_455  S
O318        C320   1.275       .  A
Ni319       O322   1.938       .  S
Ni319       O324   1.946       .  S
C320        O330   1.316       .  A
C320        C468   1.516       .  S
O321       Ni337   1.948       .  S
O321        C327   1.288       .  A
O322        C327   1.283       .  A
C323        C456   1.459       .  S
O324        C326   1.271       .  A
O325       Ni336   1.919       .  S
C326        O332   1.258       .  A
C326        C441   1.481       .  S
C327        C480   1.514       .  S
H328        O329   0.965       .  S
O329       Ni337   1.958   1_655  S
O329       Ni331   1.872   1_655  S
O329       Ni336   1.875       .  S
O330       Ni331   2.046       .  S
Ni331       O335   1.915       .  S
Ni331       O333   1.924   1_455  S
O332       Ni337   1.906       .  S
C334        O335   1.282       .  A
C334        C672   1.500       .  S
O339       Ni345   1.933       .  S
O339        C360   1.281       .  A
O340       Ni363   1.873       .  S
O340        C349   1.261       .  A
O341       Ni345   1.890       .  S
O341       Ni363   1.870       .  S
O341       Ni357   1.901       .  S
O341        H364   0.966       .  S
C342        O359   1.262       .  A
C342        O351   1.271       .  A
C342        C429   1.490       .  S
O343       Ni362   1.909       .  S
O343        C349   1.268       .  A
O344       Ni362   1.888       .  S
O344        C346   1.277       .  A
Ni345       O348   1.943       .  S
Ni345       O350   1.938       .  S
C346        O356   1.317       .  A
C346        C465   1.515       .  S
O347       Ni363   1.945       .  S
O347        C353   1.288       .  A
O348        C353   1.284       .  A
C349        C576   1.464       .  S
O350        C352   1.269       .  A
O351       Ni362   1.933       .  S
C352        O358   1.261       .  A
C352        C612   1.478       .  S
C353        C504   1.509       .  S
H354        O355   0.965       .  S
O355       Ni363   1.959       .  S
O355       Ni357   1.861       .  S
O355       Ni362   1.876       .  S
O356       Ni357   2.043       .  S
Ni357       O361   1.912       .  S
Ni357       O359   1.913       .  S
O358       Ni363   1.918       .  S
C360        O361   1.283       .  A
C360        C657   1.503       .  S
O365       Ni371   1.965       .  S
O365        C386   1.289       .  A
O366       Ni389   1.885       .  S
O366        C375   1.271       .  A
O367       Ni371   1.892       .  S
O367       Ni389   1.880       .  S
O367       Ni383   1.912       .  S
O367        H390   0.967       .  S
C368        O385   1.286   1_565  A
C368        O377   1.277       .  A
C368        C513   1.498   1_565  S
O369       Ni388   1.904   1_455  S
O369        C375   1.265       .  A
O370       Ni388   1.901   1_545  S
O370        C372   1.259   1_655  A
Ni371       O374   1.952       .  S
Ni371       O376   1.952       .  S
C372        O382   1.296       .  A
C372        C417   1.524       .  S
O373       Ni389   1.958       .  S
O373        C379   1.294       .  A
O374        C379   1.286       .  A
C375        C453   1.432       .  S
O376        C378   1.278       .  A
O377       Ni388   1.916       .  S
C378        O384   1.259       .  A
C378        C432   1.501       .  S
C379        C600   1.512       .  S
H380        O381   0.965   1_655  S
O381       Ni389   1.940       .  S
O381       Ni383   1.869       .  S
O381       Ni388   1.885   1_455  S
O382       Ni383   2.017   1_545  S
Ni383       O387   1.911   1_565  S
Ni383       O385   1.964   1_465  S
O384       Ni389   1.894       .  S
C386        O387   1.286   1_565  A
C386        C780   1.515   1_565  S
O391       Ni397   1.959       .  S
O391        C412   1.285       .  A
O392       Ni415   1.883       .  S
O392        C401   1.274       .  A
O393       Ni397   1.894       .  S
O393       Ni415   1.886       .  S
O393       Ni409   1.920       .  S
O393        H416   0.966       .  S
C394        O411   1.287       .  A
C394        O403   1.276       .  A
C394        C444   1.494       .  S
O395       Ni414   1.891   1_545  S
O395        C401   1.260       .  A
O396       Ni414   1.903   1_455  S
O396        C398   1.258   1_565  A
Ni397       O400   1.954       .  S
Ni397       O402   1.930       .  S
C398        O408   1.293       .  A
C398        C420   1.526       .  S
O399       Ni415   1.957       .  S
O399        C405   1.292       .  A
O400        C405   1.286       .  A
C401        C528   1.424       .  S
O402        C404   1.272       .  A
O403       Ni414   1.906       .  S
C404        O410   1.267       .  A
C404        C492   1.484       .  S
C405        C552   1.512       .  S
H406        O407   0.965   1_565  S
O407       Ni415   1.934       .  S
O407       Ni409   1.862       .  S
O407       Ni414   1.888   1_545  S
O408       Ni409   2.015   1_455  S
Ni409       O413   1.905       .  S
Ni409       O411   1.965   1_545  S
O410       Ni415   1.914       .  S
C412        O413   1.282       .  A
C412        C825   1.500       .  S
C417        C418   1.410       .  A
C417        C422   1.424       .  A
C418        C419   1.423       .  A
C418        H423   1.084       .  S
C419        C420   1.423       .  A
C419        C426   1.442   1_545  S
C420        C421   1.409       .  A
C421        C422   1.422       .  A
C421        H424   1.084   1_455  S
C422        C425   1.443   1_455  S
C425        N427   1.157       .  T
C426        N428   1.157       .  T
C429        C430   1.396       .  A
C429        C434   1.419       .  A
C430        C431   1.395   1_655  A
C430        H435   1.086       .  S
C431        C432   1.430       .  A
C431        C438   1.447       .  S
C432        C433   1.406   1_455  A
C433        C434   1.411       .  A
C433        H436   1.084       .  S
C434        C437   1.443       .  S
C437        N439   1.157       .  T
C438        N440   1.158       .  T
C441        C442   1.402   1_455  A
C441        C446   1.414       .  A
C442        C443   1.402       .  A
C442        H447   1.085       .  S
C443        C444   1.417       .  A
C443        C450   1.445       .  S
C444        C445   1.405   1_655  A
C445        C446   1.409       .  A
C445        H448   1.084       .  S
C446        C449   1.440       .  S
C449        N451   1.156       .  T
C450        N452   1.157       .  T
C453        C454   1.392       .  A
C453        C458   1.404   1_455  A
C454        C455   1.387       .  A
C454        H459   1.082       .  S
C455        C456   1.414       .  A
C455        C462   1.444       .  S
C456        C457   1.404   1_455  A
C457        C458   1.384       .  A
C457        H460   1.085       .  S
C458        C461   1.447       .  S
C461        N463   1.157       .  T
C462        N464   1.157       .  T
C465        C466   1.406   1_655  A
C465        C470   1.426       .  A
C466        C467   1.418       .  A
C466        H471   1.085       .  S
C467        C468   1.426       .  A
C467        C474   1.444       .  S
C468        C469   1.406   1_455  A
C469        C470   1.418       .  A
C469        H472   1.085       .  S
C470        C473   1.445       .  S
C473        N475   1.157       .  T
C474        N476   1.157       .  T
C477        C478   1.414       .  A
C477        C482   1.417       .  A
C478        C479   1.421       .  A
C478        H483   1.081       .  S
C479        C480   1.417       .  A
C479        C486   1.442       .  S
C480        C481   1.409       .  A
C481        C482   1.400       .  A
C481        H484   1.083       .  S
C482        C485   1.446       .  S
C485        N487   1.158       .  T
C486        N488   1.157       .  T
C489        C490   1.408   1_565  A
C489        C494   1.413       .  A
C490        C491   1.408       .  A
C490        H495   1.085       .  S
C491        C492   1.413       .  A
C491        C498   1.443       .  S
C492        C493   1.404   1_545  A
C493        C494   1.398       .  A
C493        H496   1.085       .  S
C494        C497   1.445       .  S
C497        N499   1.157       .  T
C498        N500   1.157       .  T
C501        C502   1.406       .  A
C501        C506   1.418       .  A
C502        C503   1.400       .  A
C502        H507   1.085       .  S
C503        C504   1.418       .  A
C503        C510   1.446       .  S
C504        C505   1.413       .  A
C505        C506   1.421       .  A
C505        H508   1.084       .  S
C506        C509   1.441       .  S
C509        N511   1.157       .  T
C510        N512   1.157       .  T
C513        C514   1.407   1_545  A
C513        C518   1.416       .  A
C514        C515   1.403       .  A
C514        H519   1.085       .  S
C515        C516   1.412   1_565  A
C515        C522   1.443       .  S
C516        C517   1.406       .  A
C517        C518   1.411       .  A
C517        H520   1.085       .  S
C518        C521   1.442       .  S
C521        N523   1.157       .  T
C522        N524   1.158       .  T
C525        C526   1.401   1_545  A
C525        C530   1.417       .  A
C526        C527   1.385       .  A
C526        H531   1.085       .  S
C527        C528   1.403   1_565  A
C527        C534   1.446       .  S
C528        C529   1.384       .  A
C529        C530   1.382       .  A
C529        H532   1.084       .  S
C530        C533   1.439       .  S
C533        N535   1.155       .  T
C534        N536   1.157       .  T
C537        C538   1.406       .  A
C537        C542   1.426       .  A
C538        C539   1.420   1_545  A
C538        H543   1.085   1_545  S
C539        C540   1.427   1_565  A
C539        C546   1.443       .  S
C540        C541   1.407       .  A
C541        C542   1.422       .  A
C541        H544   1.084       .  S
C542        C545   1.443       .  S
C545        N547   1.157       .  T
C546        N548   1.157       .  T
C549        C550   1.409       .  A
C549        C554   1.416       .  A
C550        C551   1.410       .  A
C550        H555   1.085       .  S
C551        C552   1.413       .  A
C551        C558   1.444       .  S
C552        C553   1.415       .  A
C553        C554   1.424       .  A
C553        H556   1.084       .  S
C554        C557   1.442       .  S
C557        N559   1.157       .  T
C558        N560   1.157       .  T
C561        C562   1.407       .  A
C561        C566   1.419       .  A
C562        C563   1.409       .  A
C562        H567   1.084       .  S
C563        C564   1.419       .  A
C563        C570   1.442       .  S
C564        C565   1.403       .  A
C565        C566   1.392       .  A
C565        H568   1.085       .  S
C566        C569   1.444       .  S
C569        N571   1.156       .  T
C570        N572   1.157       .  T
C573        C574   1.397       .  A
C573        C578   1.400       .  A
C574        C575   1.391       .  A
C574        H579   1.083       .  S
C575        C576   1.416       .  A
C575        C582   1.445       .  S
C576        C577   1.407       .  A
C577        C578   1.385       .  A
C577        H580   1.084       .  S
C578        C581   1.443       .  S
C581        N583   1.157       .  T
C582        N584   1.157       .  T
C585        C586   1.405       .  A
C585        C590   1.417       .  A
C586        C587   1.408       .  A
C586        H591   1.085       .  S
C587        C588   1.415       .  A
C587        C594   1.444       .  S
C588        C589   1.403       .  A
C589        C590   1.408       .  A
C589        H592   1.085       .  S
C590        C593   1.443       .  S
C593        N595   1.157       .  T
C594        N596   1.157       .  T
C597        C598   1.410       .  A
C597        C602   1.418       .  A
C598        C599   1.406       .  A
C598        H603   1.085       .  S
C599        C600   1.414       .  A
C599        C606   1.445       .  S
C600        C601   1.415       .  A
C601        C602   1.426       .  A
C601        H604   1.084       .  S
C602        C605   1.441       .  S
C605        N607   1.157       .  T
C606        N608   1.157       .  T
C609        C610   1.405       .  A
C609        C614   1.414       .  A
C610        C611   1.405       .  A
C610        H615   1.085       .  S
C611        C612   1.412       .  A
C611        C618   1.445       .  S
C612        C613   1.402       .  A
C613        C614   1.405       .  A
C613        H616   1.085       .  S
C614        C617   1.443       .  S
C617        N619   1.157       .  T
C618        N620   1.157       .  T
C621        C622   1.404       .  A
C621        C626   1.409       .  A
C622        C623   1.394       .  A
C622        H627   1.086       .  S
C623        C624   1.414       .  A
C623        C630   1.446       .  S
C624        C625   1.409       .  A
C625        C626   1.405       .  A
C625        H628   1.084       .  S
C626        C629   1.442       .  S
C629        N631   1.157       .  T
C630        N632   1.158       .  T
C633        C634   1.400       .  A
C633        C638   1.407       .  A
C634        C635   1.385       .  A
C634        H639   1.087       .  S
C635        C636   1.413       .  A
C635        C642   1.446       .  S
C636        C637   1.401       .  A
C637        C638   1.385       .  A
C637        H640   1.085       .  S
C638        C641   1.443       .  S
C641        N643   1.156       .  T
C642        N644   1.157       .  T
C645        C646   1.406       .  A
C645        C650   1.421       .  A
C646        C647   1.418       .  A
C646        H651   1.085       .  S
C647        C648   1.423       .  A
C647        C654   1.443       .  S
C648        C649   1.411       .  A
C649        C650   1.422       .  A
C649        H652   1.084       .  S
C650        C653   1.443       .  S
C653        N655   1.157       .  T
C654        N656   1.157       .  T
C657        C658   1.412       .  A
C657        C662   1.414   1_655  A
C658        C659   1.398       .  A
C658        H663   1.084       .  S
C659        C660   1.412   1_655  A
C659        C666   1.442       .  S
C660        C661   1.416       .  A
C661        C662   1.412       .  A
C661        H664   1.084       .  S
C662        C665   1.443       .  S
C665        N667   1.158       .  T
C666        N668   1.156       .  T
C669        C670   1.416       .  A
C669        C674   1.415       .  A
C670        C671   1.412   1_556  A
C670        H675   1.084       .  S
C671        C672   1.411   1_655  A
C671        C678   1.442   1_655  S
C672        C673   1.411   1_455  A
C673        C674   1.398   1_554  A
C673        H676   1.085   1_655  S
C674        C677   1.445       .  S
C677        N679   1.157       .  T
C678        N680   1.157       .  T
C681        C682   1.408       .  A
C681        C686   1.420       .  A
C682        C683   1.417       .  A
C682        H687   1.084       .  S
C683        C684   1.419       .  A
C683        C690   1.443       .  S
C684        C685   1.407       .  A
C685        C686   1.416       .  A
C685        H688   1.085   1_655  S
C686        C689   1.444   1_655  S
C689        N691   1.157       .  T
C690        N692   1.157       .  T
C693        C694   1.404       .  A
C693        C698   1.421       .  A
C694        C695   1.405       .  A
C694        H699   1.082       .  S
C695        C696   1.414       .  A
C695        C702   1.443       .  S
C696        C697   1.399       .  A
C697        C698   1.400       .  A
C697        H700   1.085       .  S
C698        C701   1.446       .  S
C701        N703   1.157       .  T
C702        N704   1.157       .  T
C705        C706   1.409       .  A
C705        C710   1.414       .  A
C706        C707   1.406       .  A
C706        H711   1.082       .  S
C707        C708   1.407       .  A
C707        C714   1.443       .  S
C708        C709   1.403       .  A
C709        C710   1.396       .  A
C709        H712   1.084       .  S
C710        C713   1.445       .  S
C713        N715   1.157       .  T
C714        N716   1.157       .  T
C717        C718   1.399       .  A
C717        C722   1.419       .  A
C718        C719   1.397       .  A
C718        H723   1.085       .  S
C719        C720   1.421   1_554  A
C719        C726   1.447       .  S
C720        C721   1.405       .  A
C721        C722   1.410   1_556  A
C721        H724   1.084       .  S
C722        C725   1.442       .  S
C725        N727   1.157       .  T
C726        N728   1.158       .  T
C729        C730   1.400       .  A
C729        C734   1.399       .  A
C730        C731   1.389       .  A
C730        H735   1.086       .  S
C731        C732   1.413       .  A
C731        C738   1.445       .  S
C732        C733   1.409       .  A
C733        C734   1.383       .  A
C733        H736   1.084       .  S
C734        C737   1.445       .  S
C737        N739   1.157       .  T
C738        N740   1.157       .  T
C741        C742   1.402       .  A
C741        C746   1.414       .  A
C742        C743   1.404       .  A
C742        H747   1.085       .  S
C743        C744   1.413       .  A
C743        C750   1.444       .  S
C744        C745   1.401       .  A
C745        C746   1.401       .  A
C745        H748   1.085       .  S
C746        C749   1.445       .  S
C749        N751   1.157       .  T
C750        N752   1.157       .  T
C753        C754   1.405       .  A
C753        C758   1.422       .  A
C754        C755   1.416       .  A
C754        H759   1.085       .  S
C755        C756   1.424       .  A
C755        C762   1.444       .  S
C756        C757   1.407       .  A
C757        C758   1.419       .  A
C757        H760   1.084       .  S
C758        C761   1.444       .  S
C761        N763   1.157       .  T
C762        N764   1.157       .  T
C765        C766   1.411       .  A
C765        C770   1.414       .  A
C766        C767   1.399       .  A
C766        H771   1.084       .  S
C767        C768   1.413       .  A
C767        C774   1.445       .  S
C768        C769   1.413       .  A
C769        C770   1.416       .  A
C769        H772   1.083       .  S
C770        C773   1.442       .  S
C773        N775   1.157       .  T
C774        N776   1.157       .  T
C777        C778   1.414       .  A
C777        C782   1.411   1_545  A
C778        C779   1.404       .  A
C778        H783   1.085       .  S
C779        C780   1.414       .  A
C779        C786   1.444       .  S
C780        C781   1.419   1_545  A
C781        C782   1.417       .  A
C781        H784   1.084       .  S
C782        C785   1.442       .  S
C785        N787   1.157       .  T
C786        N788   1.157       .  T
C789        C790   1.404   1_655  A
C789        C794   1.412       .  A
C790        C791   1.409       .  A
C790        H795   1.085       .  S
C791        C792   1.416       .  A
C791        C798   1.444       .  S
C792        C793   1.403   1_455  A
C793        C794   1.403       .  A
C793        H796   1.083       .  S
C794        C797   1.444       .  S
C797        N799   1.157       .  T
C798        N800   1.157       .  T
C801        C802   1.389   1_455  A
C801        C806   1.399       .  A
C802        C803   1.390       .  A
C802        H807   1.082       .  S
C803        C804   1.422       .  A
C803        C810   1.441       .  S
C804        C805   1.406   1_655  A
C805        C806   1.395       .  A
C805        H808   1.084       .  S
C806        C809   1.441       .  S
C809        N811   1.157       .  T
C810        N812   1.156       .  T
C813        C814   1.412       .  A
C813        C818   1.417       .  A
C814        C815   1.413       .  A
C814        H819   1.084       .  S
C815        C816   1.417       .  A
C815        C822   1.442       .  S
C816        C817   1.406       .  A
C817        C818   1.395       .  A
C817        H820   1.084       .  S
C818        C821   1.446       .  S
C821        N823   1.157       .  T
C822        N824   1.157       .  T
C825        C826   1.399   1_655  A
C825        C830   1.423       .  A
C826        C827   1.404       .  A
C826        H831   1.085       .  S
C827        C828   1.424   1_554  A
C827        C834   1.445       .  S
C828        C829   1.403   1_455  A
C829        C830   1.412   1_556  A
C829        H832   1.084   1_545  S
C830        C833   1.444       .  S
C833        N835   1.157   1_545  T
C834        N836   1.157   1_554  T
C837        C838   1.417       .  A
C837        C842   1.412   1_645  A
C838        C839   1.417       .  A
C838        H843   1.085       .  S
C839        C840   1.410   1_645  A
C839        C846   1.443       .  S
C840        C841   1.418       .  A
C841        C842   1.419       .  A
C841        H844   1.085       .  S
C842        C845   1.443       .  S
C845        N847   1.157       .  T
C846        N848   1.157       .  T
C849        C850   1.407       .  A
C849        C854   1.424       .  A
C850        C851   1.399       .  A
C850        H855   1.084       .  S
C851        C852   1.414       .  A
C851        C858   1.444       .  S
C852        C853   1.398       .  A
C853        C854   1.403       .  A
C853        H856   1.085   1_455  S
C854        C857   1.441       .  S
C857        N859   1.156   1_455  T
C858        N860   1.157       .  T
C861        C862   1.408       .  A
C861        C866   1.419       .  A
C862        C863   1.405       .  A
C862        H867   1.085       .  S
C863        C864   1.415       .  A
C863        C870   1.445       .  S
C864        C865   1.414       .  A
C865        C866   1.426       .  A
C865        H868   1.084       .  S
C866        C869   1.442       .  S
C869        N871   1.157       .  T
C870        N872   1.157       .  T
C873        C874   1.409   1_545  A
C873        C878   1.425       .  A
C874        C875   1.415       .  A
C874        H879   1.084       .  S
C875        C876   1.418       .  A
C875        C882   1.443       .  S
C876        C877   1.400   1_565  A
C877        C878   1.401       .  A
C877        H880   1.085       .  S
C878        C881   1.446       .  S
C881        N883   1.157       .  T
C882        N884   1.157       .  T
C885        C886   1.408       .  A
C885        C890   1.408       .  A
C886        C887   1.404       .  A
C886        H891   1.085       .  S
C887        C888   1.418       .  A
C887        C894   1.445       .  S
C888        C889   1.414       .  A
C889        C890   1.403       .  A
C889        H892   1.084       .  S
C890        C893   1.443   1_545  S
C893        N895   1.157       .  T
C894        N896   1.158       .  T
C897        C898   1.393   1_545  A
C897        C902   1.402       .  A
C898        C899   1.391       .  A
C898        H903   1.085       .  S
C899        C900   1.421       .  A
C899        C906   1.445       .  S
C900        C901   1.402   1_565  A
C901        C902   1.389       .  A
C901        H904   1.085       .  S
C902        C905   1.444       .  S
C905        N907   1.157       .  T
C906        N908   1.158       .  T
C909        C910   1.404       .  A
C909        C914   1.410       .  A
C910        C911   1.403       .  A
C910        H915   1.085       .  S
C911        C912   1.410       .  A
C911        C918   1.443       .  S
C912        C913   1.406       .  A
C913        C914   1.402       .  A
C913        H916   1.084       .  S
C914        C917   1.444       .  S
C917        N919   1.157       .  T
C918        N920   1.157       .  T
C921        C922   1.407       .  A
C921        C926   1.417       .  A
C922        C923   1.415       .  A
C922        H927   1.084       .  S
C923        C924   1.417       .  A
C923        C930   1.444       .  S
C924        C925   1.407       .  A
C925        C926   1.416       .  A
C925        H928   1.084       .  S
C926        C929   1.443       .  S
C929        N931   1.157       .  T
C930        N932   1.157       .  T
C933        C934   1.404   1_545  A
C933        C938   1.424       .  A
C934        C935   1.405       .  A
C934        H939   1.085       .  S
C935        C936   1.424   1_556  A
C935        C942   1.445       .  S
C936        C937   1.406   1_565  A
C937        C938   1.414   1_554  A
C937        H940   1.084       .  S
C938        C941   1.443   1_556  S
C941        N943   1.157       .  T
C942        N944   1.157       .  T
C945        C946   1.404   1_565  A
C945        C950   1.411       .  A
C946        C947   1.405       .  A
C946        H951   1.084       .  S
C947        C948   1.420       .  A
C947        C954   1.445       .  S
C948        C949   1.406   1_545  A
C949        C950   1.403       .  A
C949        H952   1.085       .  S
C950        C953   1.441       .  S
C953        N955   1.156       .  T
C954        N956   1.158       .  T
C957        C958   1.400       .  A
C957        C962   1.396       .  A
C958        C959   1.389       .  A
C958        H963   1.086       .  S
C959        C960   1.409       .  A
C959        C966   1.444       .  S
C960        C961   1.410       .  A
C961        C962   1.384       .  A
C961        H964   1.085       .  S
C962        C965   1.445       .  S
C965        N967   1.157       .  T
C966        N968   1.157       .  T
C969        C970   1.404       .  A
C969        C974   1.410       .  A
C970        C971   1.393       .  A
C970        H975   1.086       .  S
C971        C972   1.418       .  A
C971        C978   1.446       .  S
C972        C973   1.413       .  A
C973        C974   1.408       .  A
C973        H976   1.084       .  S
C974        C977   1.442       .  S
C977        N979   1.157       .  T
C978        N980   1.158       .  T
C981        C982   1.414   1_565  A
C981        C986   1.414       .  A
C982        C983   1.419       .  A
C982        H987   1.085       .  S
C983        C984   1.416   1_545  A
C983        C990   1.442       .  S
C984        C985   1.414       .  A
C985        C986   1.417       .  A
C985        H988   1.084       .  S
C986        C989   1.441       .  S
C989        N991   1.157       .  T
C990        N992   1.157       .  T
