geometry optimzed in LAMMPS
_audit_creation_date              2020-12-01 
_audit_creation_method            'lammps2cif' 
_symmetry_space_group_name_H-M    'P1' 
_symmetry_Int_Tables_number       1 
_symmetry_cell_setting            triclinic 
loop_ 
_symmetry_equiv_pos_as_xyz 
  x,y,z 
_cell_length_a                    39.45579376 
_cell_length_b                    39.40808315284754 
_cell_length_c                    105.23859819253465 
_cell_angle_alpha                 89.96063940219459 
_cell_angle_beta                  90.07048929633528 
_cell_angle_gamma                 120.06854338892754 
loop_ 
_atom_site_label 
_atom_site_type_symbol 
_atom_site_fract_x 
_atom_site_fract_y 
_atom_site_fract_z 
_atom_site_charge 
Zr1        Zr  0.89046287  0.18524319  0.56265786     2.17500
O2          O  0.87813675  0.14320299  0.54419765    -0.51800
O3          O  0.95745193  0.19930007  0.56646390    -0.75000
O4          O  0.92041334  0.22359967  0.54364203    -0.81800
O5          O  0.85011010  0.10025646  0.58574792    -0.83500
O6          O  0.90911411  0.27482027  0.54302390    -0.79200
O7          O  0.87880006  0.11961412  0.56633476    -0.90800
O8          O  0.98092933  0.23893770  0.58371318    -0.76800
O9          O  0.92180951  0.25258633  0.56835259    -0.86200
O10         O  0.90012670  0.18687582  0.58500519    -0.85900
O11         O  0.84560911  0.20702353  0.55650085    -0.72700
O12         O  0.82633226  0.14685929  0.57169572    -0.84800
Zr13       Zr  0.82435474  0.24028811  0.59453054     2.26400
Zr14       Zr  0.87710833  0.27454849  0.56285830     2.06300
Zr15       Zr  0.83641180  0.14986665  0.59405958     2.10000
Zr16       Zr  0.93167781  0.25439269  0.59061660     1.78800
O17         O  0.77274127  0.09046400  0.59574223    -0.93600
O18         O  0.98695397  0.31636228  0.58355398    -0.41400
O19         O  0.86842472  0.21746821  0.59996830    -0.78100
O20         O  0.88862325  0.27910438  0.58537566    -0.96800
O21         O  0.81358985  0.23751978  0.57222266    -0.90100
O22         O  0.79194472  0.17249119  0.58890899    -0.92900
C23         C  0.98427116  0.21877098  0.57475346     1.00900
C24         C  0.86480196  0.09505906  0.57554391     1.13800
C25         C  0.92279336  0.25403867  0.53831162     1.04600
O26         O  0.93665199  0.33817025  0.56137515    -0.95100
O27         O  0.86019152  0.32284984  0.57009802    -0.90800
O28         O  0.83576708  0.30616155  0.59000450    -0.83900
C29         C  0.84677329  0.32934766  0.58038048     1.11200
O30         O  0.76539729  0.12533410  0.54853420    -0.97000
Zr31       Zr  0.78254808  0.17024051  0.56646900     1.88900
O32         O  0.75506942  0.22006947  0.59215496    -0.73700
O33         O  0.84377680  0.28799176  0.54577181    -0.52900
O34         O  0.76103899  0.19488073  0.54880677    -0.97600
O35         O  0.73061906  0.10324191  0.57074605    -0.54800
O36         O  0.73033841  0.17857283  0.57533375    -0.74200
C37         C  0.72701695  0.19795882  0.58457056     0.98100
O38         O  0.82054117  0.27109111  0.61414348    -0.63000
O39         O  0.86442501  0.12969188  0.61107819    -0.57800
O40         O  0.82100411  0.21613096  0.61613825    -0.94500
O41         O  0.82095595  0.15841148  0.61556305    -0.92900
O42         O  0.95212938  0.23539974  0.60990021    -0.93300
O43         O  0.95333528  0.30197351  0.60784967    -0.92100
C44         C  0.81986325  0.18622558  0.62148648     1.17000
H45         H  0.91548316  0.17503646  0.58742630     0.32900
H46         H  0.90063381  0.30602669  0.58816056     0.43800
H47         H  0.76760949  0.15776993  0.59348665     0.37300
H48         H  0.84208207  0.20497585  0.54739116     0.33800
H49         H  0.00960495  0.31895167  0.58843561     0.25600
H50         H  0.86499610  0.30862138  0.54056661     0.31500
H51         H  0.73221141  0.18177469  0.54967382     0.37400
H52         H  0.92773415  0.21336380  0.61341297     0.31900
H53         H  0.84938192  0.10067377  0.61102447     0.30800
H54         H  0.77868224  0.06972522  0.59817660     0.32400
H55         H  0.70697963  0.10096290  0.56663834     0.31400
H56         H  0.93125549  0.30672344  0.60926782     0.35400
H57         H  0.84240913  0.29853874  0.61385677     0.28100
H58         H  0.90431325  0.15077922  0.54072735     0.32400
H59         H  0.73970284  0.12063192  0.54542364     0.35200
H60         H  0.89093182  0.13677292  0.60808412     0.27800
H61         H  0.79636066  0.27264025  0.61337699     0.40700
H62         H  0.94304078  0.34760145  0.57024893     0.30800
H63         H  0.99204653  0.31159319  0.57470956     0.38400
H64         H  0.72529687  0.10244157  0.57995380     0.30200
H65         H  0.83233841  0.26424226  0.54037014     0.30300
H66         H  0.86594602  0.15215300  0.53778175     0.30600
Zr67       Zr  0.13802278  0.31013052  0.43955941     2.17500
O68         O  0.15296406  0.29016379  0.45974818    -0.51800
O69         O  0.07333695  0.25437235  0.43613355    -0.75000
O70         O  0.09900810  0.31601647  0.45622333    -0.81800
O71         O  0.18583450  0.26614900  0.41951867    -0.83500
O72         O  0.10380594  0.37589715  0.45467426    -0.79200
O73         O  0.15045125  0.25584012  0.43760634    -0.90800
O74         O  0.04734536  0.26809560  0.41893234    -0.76800
O75         O  0.10401291  0.34113787  0.43139575    -0.86200
O76         O  0.13165034  0.29766879  0.41732988    -0.85900
O77         O  0.17786198  0.37835496  0.44501869    -0.72700
O78         O  0.20372458  0.33774549  0.43183095    -0.84800
Zr79       Zr  0.20331874  0.42533317  0.40555132     2.26400
Zr80       Zr  0.14410429  0.40920275  0.43610061     2.06300
Zr81       Zr  0.19692748  0.32630815  0.40951249     2.10000
Zr82       Zr  0.09793248  0.32885553  0.40925412     1.78800
O83         O  0.25935956  0.32783403  0.40959187    -0.93600
O84         O  0.04146617  0.33796387  0.41120862    -0.41400
O85         O  0.16288726  0.35690428  0.40077897    -0.78100
O86         O  0.13738143  0.39780499  0.41358047    -0.96800
O87         O  0.20912295  0.43723583  0.42791256    -0.90100
O88         O  0.23725365  0.39449949  0.41399018    -0.92900
C89         C  0.04542912  0.24612213  0.42826332     1.00900
C90         C  0.16870602  0.24636346  0.42953161     1.13800
C91         C  0.09090450  0.34214587  0.45993776     1.04600
O92         O  0.08609075  0.41599788  0.43525133    -0.95100
O93         O  0.16080825  0.47251372  0.42713103    -0.90800
O94         O  0.19551830  0.48244764  0.40890722    -0.83900
C95         C  0.17937715  0.49317953  0.41740043     1.11200
O96         O  0.25931629  0.37974086  0.45469388    -0.97000
Zr97       Zr  0.24266969  0.40628221  0.43629377     1.88900
O98         O  0.27034787  0.47870703  0.40848972    -0.73700
O99         O  0.17192534  0.45657578  0.45337428    -0.52900
O100        O  0.25813967  0.44993156  0.45446160    -0.97600
O101        O  0.30175964  0.40213961  0.43317233    -0.54800
O102        O  0.29017523  0.47016059  0.42793558    -0.74200
C103        C  0.29481876  0.49010600  0.41777609     0.98100
O104        O  0.18921176  0.44791875  0.38564324    -0.63000
O105        O  0.16982645  0.27625164  0.39300068    -0.57800
O106        O  0.22842047  0.41068529  0.38612949    -0.94500
O107        O  0.22546264  0.35223931  0.38907178    -0.92900
O108        O  0.08003159  0.27991252  0.39261204    -0.93300
O109        O  0.08137707  0.34912435  0.38943957    -0.92100
C110        C  0.23297615  0.38216730  0.38226705     1.17000
H111        H  0.11743153  0.26991094  0.41551356     0.32900
H112        H  0.12502503  0.41121877  0.40979463     0.43800
H113        H  0.26261641  0.40477356  0.41004311     0.37300
H114        H  0.17942000  0.38129932  0.45414939     0.33800
H115        H  0.02038767  0.31595659  0.40636057     0.25600
H116        H  0.14908090  0.45571643  0.45758835     0.31500
H117        H  0.28709904  0.46449785  0.45493179     0.37400
H118        H  0.10494216  0.28739319  0.38819072     0.31900
H119        H  0.18863104  0.26666119  0.39227147     0.30800
H120        H  0.25755371  0.31079652  0.40240568     0.32400
H121        H  0.31216711  0.41407294  0.42476591     0.31400
H122        H  0.10673754  0.37021989  0.38614247     0.35400
H123        H  0.17500361  0.42416403  0.38030181     0.28100
H124        H  0.12739985  0.26936449  0.46303315     0.32400
H125        H  0.28547976  0.40058230  0.45754822     0.35200
H126        H  0.14613311  0.25406526  0.39680064     0.27800
H127        H  0.16895286  0.45485806  0.38768745     0.40700
H128        H  0.07822877  0.41220202  0.42619591     0.30800
H129        H  0.03329220  0.33181440  0.42019956     0.38400
H130        H  0.29215765  0.37384225  0.43194186     0.30200
H131        H  0.18174024  0.44466111  0.45958810     0.30300
H132        H  0.16072750  0.31269907  0.46553043     0.30600
Zr133      Zr  0.15159317  0.90245468  0.44150702     2.17500
O134        O  0.11467488  0.88536510  0.46130276    -0.51800
O135        O  0.15717473  0.96587328  0.43799393    -0.75000
O136        O  0.19330276  0.94108489  0.45899159    -0.81800
O137        O  0.06329980  0.85331616  0.42041450    -0.83500
O138        O  0.25089739  0.94121933  0.45783809    -0.79200
O139        O  0.08438362  0.88778987  0.43880947    -0.90800
O140        O  0.19453682  0.99259688  0.42050228    -0.76800
O141        O  0.21728572  0.94001526  0.43414541    -0.86200
O142        O  0.14714772  0.90903471  0.41918299    -0.85900
O143        O  0.18246230  0.86520457  0.44720350    -0.72700
O144        O  0.11728071  0.83658699  0.43335745    -0.84800
Zr145      Zr  0.21124915  0.84480776  0.40833916     2.26400
Zr146      Zr  0.24805694  0.90263173  0.43927099     2.06300
Zr147      Zr  0.11436360  0.84397085  0.41094931     2.10000
Zr148      Zr  0.21270543  0.94654943  0.41190447     1.78800
O149        O  0.05942792  0.77706354  0.41026222    -0.93600
O150        O  0.27619929  0.00529941  0.41509122    -0.41400
O151        O  0.17995408  0.88186557  0.40319656    -0.78100
O152        O  0.24529223  0.91041198  0.41676602    -0.96800
O153        O  0.21531433  0.83795103  0.43065007    -0.90100
O154        O  0.14531909  0.80663696  0.41567630    -0.92900
C155        C  0.17378827  0.99339806  0.42978567     1.00900
C156        C  0.05822658  0.86962580  0.43023863     1.13800
C157        C  0.22780258  0.95130089  0.46308093     1.04600
O158        O  0.31152919  0.96248244  0.43978598    -0.95100
O159        O  0.29947862  0.89185136  0.43073898    -0.90800
O160        O  0.27588914  0.85437042  0.41293456    -0.83900
C161        C  0.30277854  0.87313341  0.42124340     1.11200
O162        O  0.11132717  0.78319919  0.45753220    -0.97000
Zr163      Zr  0.14997771  0.80055977  0.43805902     1.88900
O164        O  0.19879895  0.77787928  0.41027311    -0.73700
O165        O  0.26303237  0.87115861  0.45659011    -0.52900
O166        O  0.18286300  0.78509523  0.45478245    -0.97600
O167        O  0.08682582  0.74068404  0.43555679    -0.54800
O168        O  0.16567785  0.75358072  0.42876312    -0.74200
C169        C  0.18271760  0.75086383  0.41873429     0.98100
O170        O  0.25540339  0.86560192  0.39001986    -0.63000
O171        O  0.08150175  0.86215726  0.39495483    -0.57800
O172        O  0.17773194  0.82368252  0.38792905    -0.94500
O173        O  0.12335457  0.82956500  0.38925823    -0.92900
O174        O  0.18193461  0.96136122  0.39435236    -0.93300
O175        O  0.25238467  0.96725875  0.39267692    -0.92100
C176        C  0.14799779  0.82389881  0.38301552     1.17000
H177        H  0.13238819  0.92179862  0.41711039     0.32900
H178        H  0.27151420  0.92438209  0.41333871     0.43800
H179        H  0.13192252  0.78146283  0.41148109     0.37300
H180        H  0.18277238  0.86311651  0.45634345     0.33800
H181        H  0.27498691  0.02585087  0.41002460     0.25600
H182        H  0.28764987  0.89230085  0.46031609     0.31500
H183        H  0.17254867  0.75652128  0.45404079     0.37400
H184        H  0.19550658  0.99035975  0.39402746     0.31900
H185        H  0.05325611  0.84270835  0.39571860     0.30800
H186        H  0.03870625  0.77890659  0.40553078     0.32400
H187        H  0.09000672  0.72010053  0.43986549     0.31400
H188        H  0.24538918  0.94253875  0.38817947     0.35400
H189        H  0.24467019  0.87667497  0.38381611     0.28100
H190        H  0.11944261  0.91057560  0.46492798     0.32400
H191        H  0.10847339  0.75794517  0.46037904     0.35200
H192        H  0.08406834  0.88716356  0.39793939     0.27800
H193        H  0.27993877  0.88890691  0.39289000     0.40700
H194        H  0.31258386  0.97617545  0.43178071     0.30800
H195        H  0.27583853  0.01293725  0.42402834     0.38400
H196        H  0.08504917  0.73398708  0.42642706     0.30200
H197        H  0.24288375  0.86540619  0.46313785     0.30300
H198        H  0.12847250  0.87643602  0.46707667     0.30600
Zr199      Zr  0.29285297  0.17552745  0.56275985     2.17500
O200        O  0.27480710  0.19852063  0.54381947    -0.51800
O201        O  0.23484049  0.11138699  0.56516460    -0.75000
O202        O  0.29476289  0.13925303  0.54443980    -0.81800
O203        O  0.25762223  0.22586115  0.58481985    -0.83500
O204        O  0.34988812  0.13445773  0.54555590    -0.79200
O205        O  0.24065684  0.18967589  0.56667876    -0.90800
O206        O  0.24593236  0.08280942  0.58219538    -0.76800
O207        O  0.31726111  0.13470691  0.57012655    -0.86200
O208        O  0.28293773  0.17065122  0.58516514    -0.85900
O209        O  0.36084203  0.20832384  0.55685152    -0.72700
O210        O  0.32861830  0.24183187  0.57048241    -0.84800
Zr211      Zr  0.41216246  0.22854275  0.59546814     2.26400
Zr212      Zr  0.38530961  0.16785988  0.56489593     2.06300
Zr213      Zr  0.32001426  0.23635158  0.59293911     2.10000
Zr214      Zr  0.30736303  0.12995281  0.59239465     1.78800
O215        O  0.34160227  0.30592091  0.59140974    -0.93600
O216        O  0.31156386  0.07044716  0.59137225    -0.41400
O217        O  0.34374147  0.19498507  0.60074005    -0.78100
O218        O  0.37609768  0.16222971  0.58748925    -0.96800
O219        O  0.42162361  0.23312021  0.57307240    -0.90100
O220        O  0.38835810  0.26993211  0.58793988    -0.92900
C221        C  0.22504704  0.08242022  0.57274645     1.00900
C222        C  0.23454436  0.20866467  0.57541969     1.13800
C223        C  0.31785530  0.12785053  0.54014197     1.04600
O224        O  0.37863669  0.10305204  0.56627834    -0.95100
O225        O  0.44742984  0.17676122  0.57253662    -0.90800
O226        O  0.45868492  0.20576143  0.59195894    -0.83900
C227        C  0.46744096  0.18991903  0.58281628     1.11200
O228        O  0.37468165  0.29148737  0.54633524    -0.97000
Zr229      Zr  0.39707193  0.27333095  0.56541464     1.88900
O230        O  0.46766490  0.29541198  0.59281784    -0.73700
O231        O  0.43270683  0.19233027  0.54761679    -0.52900
O232        O  0.44065568  0.28310226  0.54764589    -0.97600
O233        O  0.40100333  0.33664829  0.56825350    -0.54800
O234        O  0.46257135  0.31694015  0.57326427    -0.74200
C235        C  0.48111718  0.32025812  0.58361757     0.98100
O236        O  0.45160232  0.22446521  0.61265761    -0.63000
O237        O  0.27883976  0.23858336  0.60980903    -0.57800
O238        O  0.39473964  0.24067226  0.61672529    -0.94500
O239        O  0.33878974  0.24340939  0.61505459    -0.92900
O240        O  0.25731383  0.11614747  0.60831242    -0.93300
O241        O  0.32299365  0.11120863  0.61266356    -0.92100
C242        C  0.36636458  0.24361043  0.62154108     1.17000
H243        H  0.25556993  0.15890611  0.58735611     0.32900
H244        H  0.38668486  0.14686781  0.59103239     0.43800
H245        H  0.40184558  0.29536428  0.59196276     0.37300
H246        H  0.36309777  0.20993175  0.54770412     0.33800
H247        H  0.28667376  0.04982990  0.59511510     0.25600
H248        H  0.42915187  0.16859064  0.54320012     0.31500
H249        H  0.46112733  0.31113162  0.54802769     0.37400
H250        H  0.24121775  0.08718484  0.60856531     0.31900
H251        H  0.27321492  0.25950591  0.60731985     0.30800
H252        H  0.32820504  0.30810847  0.58375783     0.32400
H253        H  0.42244514  0.35478580  0.56256050     0.31400
H254        H  0.34800765  0.13438115  0.61528576     0.35400
H255        H  0.46346417  0.24996910  0.61714363     0.28100
H256        H  0.25382677  0.17457402  0.53970042     0.32400
H257        H  0.39765929  0.31553385  0.54303423     0.35200
H258        H  0.25346038  0.21385192  0.60906781     0.27800
H259        H  0.43289520  0.20497399  0.61877071     0.40700
H260        H  0.38604203  0.10090734  0.57510981     0.30800
H261        H  0.30929453  0.06391925  0.58221668     0.38400
H262        H  0.41173547  0.34538664  0.57690087     0.30200
H263        H  0.42282190  0.20462519  0.54157748     0.30300
H264        H  0.29760144  0.20786652  0.53806282     0.30600
Zr265      Zr  0.73513817  0.89121411  0.44085437     2.17500
O266        O  0.75506382  0.92788376  0.46072429    -0.51800
O267        O  0.79089672  0.88223450  0.43743805    -0.75000
O268        O  0.73147940  0.84780177  0.45785309    -0.81800
O269        O  0.77856572  0.97872407  0.41918691    -0.83500
O270        O  0.67420836  0.78987803  0.45587489    -0.79200
O271        O  0.78920744  0.95795413  0.43812443    -0.90800
O272        O  0.77896993  0.84651015  0.41936412    -0.76800
O273        O  0.70696870  0.82675981  0.43228758    -0.86200
O274        O  0.74567101  0.89915093  0.41849119    -0.85900
O275        O  0.66700670  0.85833718  0.44664676    -0.72700
O276        O  0.70301249  0.92642663  0.43421899    -0.84800
Zr277      Zr  0.61730660  0.83645496  0.40759880     2.26400
Zr278      Zr  0.63891626  0.79423922  0.43738514     2.06300
Zr279      Zr  0.71255820  0.93311060  0.41182118     2.10000
Zr280      Zr  0.71748132  0.83460390  0.41010304     1.78800
O281        O  0.69436599  0.98235208  0.41657526    -0.93600
O282        O  0.71186499  0.77029536  0.41154945    -0.41400
O283        O  0.68579957  0.86904337  0.40289520    -0.78100
O284        O  0.64848487  0.80042563  0.41475450    -1.05800
O285        O  0.60637120  0.82781522  0.42993428    -0.90100
O286        O  0.64417065  0.90078482  0.41643210    -0.92900
C287        C  0.80021307  0.86482831  0.42901578     1.00900
C288        C  0.79952162  0.98300096  0.42903809     1.13800
C289        C  0.70720910  0.81253689  0.46134557     1.04600
O290        O  0.63893448  0.73260526  0.43605930    -0.95100
O291        O  0.57627791  0.74395429  0.42879360    -0.90800
O292        O  0.56474090  0.76883883  0.41089682    -0.83900
C293        C  0.55536092  0.74124100  0.41905199     1.11200
O294        O  0.65545053  0.93040163  0.45835277    -0.97000
Zr295      Zr  0.63413426  0.89151082  0.43888272     1.88900
O296        O  0.56617760  0.85360850  0.41034044    -0.73700
O297        O  0.59277569  0.77272273  0.45500697    -0.52900
O298        O  0.58996580  0.85349719  0.45606851    -0.97600
O299        O  0.63129650  0.95194032  0.43800832    -0.54800
O300        O  0.56967933  0.87303197  0.43086004    -0.74200
C301        C  0.55247495  0.86247492  0.42006264     0.98100
O302        O  0.58267215  0.80439243  0.38807160    -0.63000
O303        O  0.75038570  0.98299708  0.39591224    -0.57800
O304        O  0.63961347  0.86610571  0.38646991    -0.94500
O305        O  0.69444660  0.92488038  0.38958551    -0.92900
O306        O  0.76584973  0.86839494  0.39347819    -0.93300
O307        O  0.69899109  0.80143548  0.38961495    -0.92100
C308        C  0.66840449  0.89857472  0.38233225     1.17000
H309        H  0.77315125  0.91337225  0.41634964     0.32900
H310        H  0.63632575  0.77486047  0.41080918     0.43800
H311        H  0.63237629  0.91492475  0.41279600     0.37300
H312        H  0.66463412  0.85630672  0.45578757     0.33800
H313        H  0.73521061  0.77326434  0.40703653     0.25600
H314        H  0.59001135  0.74734132  0.45765788     0.31500
H315        H  0.56967959  0.86126929  0.45617914     0.37400
H316        H  0.78039915  0.85401889  0.39285696     0.31900
H317        H  0.76102634  0.00857550  0.40028867     0.30800
H318        H  0.71345522  0.99924634  0.42311072     0.32400
H319        H  0.60894784  0.94701754  0.44351604     0.31400
H320        H  0.67247847  0.79729743  0.38794106     0.35400
H321        H  0.58474635  0.78045492  0.38728102     0.28100
H322        H  0.77798686  0.92610167  0.46365068     0.32400
H323        H  0.63134147  0.92587989  0.46273413     0.35200
H324        H  0.77343740  0.98013550  0.39409326     0.27800
H325        H  0.55461678  0.79485988  0.38973236     0.40700
H326        H  0.64471174  0.73048661  0.42704261     0.30800
H327        H  0.71695818  0.76759110  0.42060350     0.38400
H328        H  0.62216079  0.95282154  0.42931636     0.30200
H329        H  0.60719351  0.79086346  0.46207395     0.30300
H330        H  0.73402548  0.91185864  0.46686163     0.30600
Zr331      Zr  0.87332030  0.76755233  0.56191301     2.17500
O332        O  0.91040998  0.79076705  0.54220572    -0.51800
O333        O  0.86229897  0.82207804  0.56531582    -0.75000
O334        O  0.83036667  0.76107870  0.54436430    -0.81800
O335        O  0.95967842  0.81426586  0.58422727    -0.83500
O336        O  0.77606103  0.70045669  0.54517312    -0.79200
O337        O  0.93943933  0.82203417  0.56471904    -0.90800
O338        O  0.82063491  0.80690442  0.58199343    -0.76800
O339        O  0.80696022  0.73400736  0.56872383    -0.86200
O340        O  0.87494312  0.77807052  0.58424641    -0.85900
O341        O  0.84821835  0.70016526  0.55608651    -0.72700
O342        O  0.91158399  0.74117195  0.57062599    -0.84800
Zr343      Zr  0.81986148  0.64959285  0.59485945     2.26400
Zr344      Zr  0.78197557  0.66652674  0.56360935     2.06300
Zr345      Zr  0.91165861  0.75060408  0.59303517     2.10000
Zr346      Zr  0.80846406  0.74461407  0.59090537     1.78800
O347        O  0.97155770  0.74711338  0.59316990    -0.93600
O348        O  0.74316530  0.73339195  0.58618607    -0.41400
O349        O  0.84499803  0.71730257  0.60017882    -0.78100
O350        O  0.78177210  0.67633507  0.58607910    -0.96800
O351        O  0.81860010  0.63911669  0.57256839    -0.90100
O352        O  0.88651439  0.68278370  0.58809780    -0.92900
C353        C  0.84177415  0.82972320  0.57299253     1.00900
C354        C  0.96425672  0.83356690  0.57388777     1.13800
C355        C  0.79676144  0.73462889  0.54021823     1.04600
O356        O  0.71614575  0.65664372  0.56204416    -0.95100
O357        O  0.73287632  0.60287185  0.57193048    -0.90800
O358        O  0.75435264  0.59435780  0.59106894    -0.83900
C359        C  0.72883238  0.58310373  0.58210030     1.11200
O360        O  0.92587014  0.69795925  0.54677520    -0.97000
Zr361      Zr  0.88479144  0.67311152  0.56566090     1.88900
O362        O  0.83698260  0.59849147  0.59212253    -0.73700
O363        O  0.77316476  0.62367615  0.54570969    -0.52900
O364        O  0.85404871  0.62518789  0.54867051    -0.97600
O365        O  0.94966575  0.68076559  0.56841044    -0.54800
O366        O  0.87525449  0.61234249  0.57457391    -0.74200
C367        C  0.85639382  0.59058438  0.58402635     0.98100
O368        O  0.77688849  0.61200275  0.61238391    -0.63000
O369        O  0.93335255  0.79838780  0.61022924    -0.57800
O370        O  0.85153212  0.66829573  0.61575185    -0.94500
O371        O  0.90850889  0.72662274  0.61447306    -0.92900
O372        O  0.83139782  0.78978821  0.60884435    -0.93300
O373        O  0.76644598  0.72084736  0.60956557    -0.92100
C374        C  0.88262733  0.69687857  0.62066842     1.17000
H375        H  0.88747394  0.80561563  0.58631663     0.32900
H376        H  0.75528526  0.66216051  0.58927545     0.43800
H377        H  0.90129653  0.67277526  0.59242853     0.37300
H378        H  0.84857279  0.69790064  0.54695193     0.33800
H379        H  0.74110304  0.75368602  0.59110847     0.25600
H380        H  0.76297522  0.59731567  0.54948718     0.31500
H381        H  0.86661088  0.60886356  0.54903103     0.37400
H382        H  0.85267170  0.81482288  0.60539454     0.31900
H383        H  0.96206135  0.81486001  0.60918928     0.30800
H384        H  0.96844899  0.72958804  0.60036646     0.32400
H385        H  0.94785038  0.65704384  0.56450912     0.31400
H386        H  0.76456516  0.69541124  0.61158004     0.35400
H387        H  0.79067222  0.60067979  0.61707436     0.28100
H388        H  0.90462090  0.81086105  0.53889916     0.32400
H389        H  0.92844928  0.67582897  0.54348247     0.35200
H390        H  0.92283908  0.81580138  0.60806300     0.27800
H391        H  0.77652189  0.63150109  0.61822215     0.40700
H392        H  0.71265794  0.66801764  0.56997701     0.30800
H393        H  0.74444427  0.74152495  0.57721350     0.38400
H394        H  0.95206835  0.67747104  0.57763139     0.30200
H395        H  0.75070265  0.62188711  0.54092364     0.30300
H396        H  0.89737455  0.76854824  0.53619117     0.30600
Zr397      Zr  0.09758361  0.56104611  0.10588397     2.17500
O398        O  0.11668938  0.59601793  0.12607480    -0.51800
O399        O  0.15386806  0.55384431  0.10217581    -0.75000
O400        O  0.09491374  0.51761981  0.12279311    -0.81800
O401        O  0.14117409  0.65014512  0.08467669    -0.83500
O402        O  0.03808478  0.45951618  0.12071421    -0.79200
O403        O  0.15114163  0.62781494  0.10346802    -0.90800
O404        O  0.14246626  0.51845350  0.08404394    -0.76800
O405        O  0.06982544  0.49671480  0.09726349    -0.86200
O406        O  0.10841912  0.56883519  0.08350911    -0.85900
O407        O  0.02977676  0.52872474  0.11184562    -0.72700
O408        O  0.06704516  0.59736590  0.09884149    -0.84800
Zr409      Zr  0.97992951  0.50701314  0.07331761     2.26400
Zr410      Zr  0.00207502  0.46466125  0.10267128     2.06300
Zr411      Zr  0.07663426  0.60332443  0.07637547     2.10000
Zr412      Zr  0.07998610  0.50472624  0.07500349     1.78800
O413        O  0.06659511  0.65907577  0.07893588    -0.93600
O414        O  0.07493972  0.44063220  0.07615628    -0.41400
O415        O  0.04790469  0.53881185  0.06767739    -0.78100
O416        O  0.01142228  0.47111899  0.08009623    -0.96800
O417        O  0.96978623  0.49906886  0.09567685    -0.90100
O418        O  0.00876368  0.57189474  0.08167704    -0.92900
C419        C  0.16361229  0.53708334  0.09369924     1.00900
C420        C  0.16155506  0.65356158  0.09461665     1.13800
C421        C  0.07091106  0.48222181  0.12623886     1.04600
O422        O  0.99925441  0.40158405  0.10142253    -0.95100
O423        O  0.93979918  0.41439931  0.09394155    -0.90800
O424        O  0.92470865  0.44161650  0.07736846    -0.83900
C425        C  0.91708580  0.41314741  0.08496926     1.11200
O426        O  0.02789606  0.60282953  0.12312266    -0.97000
Zr427      Zr  0.99872934  0.56372728  0.10404801     1.88900
O428        O  0.92757769  0.52218440  0.07603066    -0.73700
O429        O  0.95956373  0.44499803  0.12121243    -0.52900
O430        O  0.95208449  0.53067776  0.12118022    -0.97600
O431        O  0.99961757  0.62606170  0.10364365    -0.54800
O432        O  0.93697795  0.55213372  0.09513440    -0.74200
C433        C  0.91738672  0.53775332  0.08485149     0.98100
O434        O  0.95439445  0.46906913  0.05383018    -0.63000
O435        O  0.12217258  0.63823599  0.05911725    -0.57800
O436        O  0.99251263  0.54271385  0.05332589    -0.94500
O437        O  0.05057145  0.59963780  0.05519231    -0.92900
O438        O  0.12669530  0.53859629  0.05795896    -0.93300
O439        O  0.06080796  0.47184581  0.05448417    -0.92100
C440        C  0.02022793  0.57526068  0.04885371     1.17000
H441        H  0.13593822  0.58317778  0.08143622     0.32900
H442        H  0.99887665  0.44556107  0.07613979     0.43800
H443        H  0.99714403  0.58618029  0.07802288     0.37300
H444        H  0.02742124  0.52666831  0.12098853     0.33800
H445        H  0.09855211  0.44406340  0.07170227     0.25600
H446        H  0.93656561  0.44689426  0.11846350     0.31500
H447        H  0.93418517  0.54145027  0.12085250     0.37400
H448        H  0.11528310  0.55189297  0.05303764     0.31900
H449        H  0.13588367  0.66631346  0.06150919     0.30800
H450        H  0.09329197  0.68200897  0.07978406     0.32400
H451        H  0.97521511  0.62078112  0.10800257     0.31400
H452        H  0.03815011  0.47446948  0.05181433     0.35400
H453        H  0.95429255  0.44419781  0.05531435     0.28100
H454        H  0.13881505  0.59310847  0.12916965     0.32400
H455        H  0.00652103  0.60458528  0.12741925     0.35200
H456        H  0.14231377  0.63033705  0.05968828     0.27800
H457        H  0.92642535  0.46162839  0.05349300     0.40700
H458        H  0.00490856  0.39909467  0.09241908     0.30800
H459        H  0.07971316  0.43753705  0.08520926     0.38400
H460        H  0.99533897  0.63019327  0.09463995     0.30200
H461        H  0.94957238  0.41649854  0.12204028     0.30300
H462        H  0.09487442  0.58005352  0.13197754     0.30600
Zr463      Zr  0.22551592  0.43292220  0.22977606     2.17500
O464        O  0.26530092  0.45651699  0.21060644    -0.51800
O465        O  0.21528145  0.48766670  0.23363480    -0.75000
O466        O  0.18530858  0.42963732  0.21174600    -0.81800
O467        O  0.31519191  0.47073240  0.25052874    -0.83500
O468        O  0.12805556  0.37171620  0.21298291    -0.79200
O469        O  0.29231513  0.48571658  0.23280206    -0.90800
O470        O  0.17458041  0.47258475  0.25058995    -0.76800
O471        O  0.15976849  0.40281135  0.23715591    -0.86200
O472        O  0.22941576  0.44177396  0.25222837    -0.85900
O473        O  0.19621954  0.36551085  0.22338112    -0.72700
O474        O  0.26099993  0.40229958  0.23745073    -0.84800
Zr475      Zr  0.16952902  0.31281313  0.26186625     2.26400
Zr476      Zr  0.13068836  0.33536439  0.23145864     2.06300
Zr477      Zr  0.26395397  0.41060283  0.25995768     2.10000
Zr478      Zr  0.16354066  0.41098823  0.25951574     1.78800
O479        O  0.31998090  0.40049554  0.26018632    -0.93600
O480        O  0.09684902  0.39821625  0.25673199    -0.41400
O481        O  0.19830579  0.38047085  0.26768891    -0.78100
O482        O  0.13281056  0.34265058  0.25418349    -0.96800
O483        O  0.16498876  0.30401442  0.23944063    -0.90100
O484        O  0.23524661  0.34281033  0.25441692    -0.92900
C485        C  0.19501735  0.49518218  0.24146252     1.00900
C486        C  0.31933132  0.49253428  0.24091317     1.13800
C487        C  0.15081982  0.40502412  0.20770409     1.04600
O488        O  0.06769811  0.33263533  0.23247244    -0.95100
O489        O  0.08126312  0.27108981  0.23903275    -0.90800
O490        O  0.10332854  0.25946065  0.25759797    -0.83900
C491        C  0.07751444  0.24990718  0.24879979     1.11200
O492        O  0.27321650  0.35964536  0.21342883    -0.97000
Zr493      Zr  0.23027607  0.33427537  0.23188331     1.88900
O494        O  0.18483544  0.26058799  0.25864820    -0.73700
O495        O  0.11242738  0.29176905  0.21316240    -0.52900
O496        O  0.19896098  0.29096051  0.21383222    -0.97600
O497        O  0.29266912  0.33618511  0.23450880    -0.54800
O498        O  0.21245481  0.26901839  0.23914190    -0.74200
C499        C  0.19757722  0.24913140  0.24931277     0.98100
O500        O  0.13581101  0.27895400  0.28128118    -0.63000
O501        O  0.29280277  0.46152191  0.27618578    -0.57800
O502        O  0.20084969  0.32954901  0.28280262    -0.94500
O503        O  0.25913981  0.38635163  0.28143199    -0.92900
O504        O  0.19046738  0.46056202  0.27614136    -0.93300
O505        O  0.13006840  0.39129671  0.27991933    -0.92100
C506        C  0.23284096  0.35702449  0.28768614     1.17000
H507        H  0.24325498  0.46925189  0.25445474     0.32900
H508        H  0.10659432  0.32926341  0.25762499     0.43800
H509        H  0.24921316  0.33127284  0.25835920     0.37300
H510        H  0.19581431  0.36384006  0.21421898     0.33800
H511        H  0.09448823  0.41618522  0.26276751     0.25600
H512        H  0.08646361  0.28752586  0.21055356     0.31500
H513        H  0.17127862  0.27423794  0.21639893     0.37400
H514        H  0.21249604  0.45834595  0.27972293     0.31900
H515        H  0.32128408  0.47116071  0.27585568     0.30800
H516        H  0.33104465  0.40825229  0.26884439     0.32400
H517        H  0.28947300  0.31296725  0.22982647     0.31400
H518        H  0.11679788  0.36230080  0.27989711     0.35400
H519        H  0.11129850  0.28007301  0.28145621     0.28100
H520        H  0.26020062  0.47683234  0.20707115     0.32400
H521        H  0.27260755  0.33666784  0.20938211     0.35200
H522        H  0.28998065  0.48352787  0.27290083     0.27800
H523        H  0.12738296  0.25098062  0.27986311     0.40700
H524        H  0.07326599  0.35924007  0.23007899     0.30800
H525        H  0.09677311  0.40904565  0.24825282     0.38400
H526        H  0.29370718  0.32981529  0.24354494     0.30200
H527        H  0.13034278  0.30782095  0.20625802     0.30300
H528        H  0.25295272  0.43443477  0.20451678     0.30600
Zr529      Zr  0.64321622  0.83395355  0.23056415     2.17500
O530        O  0.61828951  0.85058944  0.21182954    -0.51800
O531        O  0.58835121  0.76864823  0.23425406    -0.75000
O532        O  0.64800247  0.79882136  0.21234256    -0.81800
O533        O  0.60821046  0.89049766  0.25025806    -0.83500
O534        O  0.70398777  0.79601185  0.21435054    -0.79200
O535        O  0.59060173  0.84794347  0.23367720    -0.90800
O536        O  0.60017775  0.74585236  0.25258856    -0.76800
O537        O  0.67124843  0.79733956  0.23879473    -0.86200
O538        O  0.63446205  0.83196442  0.25294844    -0.85900
O539        O  0.71067645  0.86921863  0.22420838    -0.72700
O540        O  0.67611448  0.90101415  0.23732061    -0.84800
Zr541      Zr  0.76384348  0.89796657  0.26264966     2.26400
Zr542      Zr  0.73895326  0.83311923  0.23316525     2.06300
Zr543      Zr  0.66808146  0.89872069  0.25980383     2.10000
Zr544      Zr  0.66286877  0.79565467  0.26110876     1.78800
O545        O  0.68305396  0.96655775  0.25867677    -0.93600
O546        O  0.67158393  0.73902639  0.25863131    -0.41400
O547        O  0.69600187  0.86201385  0.26831979    -0.78100
O548        O  0.73143569  0.83037200  0.25588800    -0.96800
O549        O  0.77244999  0.89964707  0.24027431    -0.90100
O550        O  0.73604784  0.93492510  0.25429328    -0.92900
C551        C  0.57913631  0.74224747  0.24280557     1.00900
C552        C  0.58469970  0.86978611  0.24133054     1.13800
C553        C  0.67216043  0.78813043  0.20854730     1.04600
O554        O  0.73632579  0.77011482  0.23449519    -0.95100
O555        O  0.80290500  0.84715809  0.24068292    -0.90800
O556        O  0.81503299  0.88132266  0.25912132    -0.83900
C557        C  0.82447532  0.86495885  0.25033668     1.11200
O558        O  0.72160215  0.95035164  0.21205212    -0.97000
Zr559      Zr  0.74412859  0.93544980  0.23177038     1.88900
O560        O  0.81724435  0.96460750  0.25878533    -0.73700
O561        O  0.78487624  0.85750079  0.21547316    -0.52900
O562        O  0.78879617  0.94232652  0.21468031    -0.97600
O563        O  0.74122108  0.99576477  0.23268942    -0.54800
O564        O  0.80888742  0.98336824  0.23915656    -0.74200
C565        C  0.82884499  0.98836157  0.24931122     0.98100
O566        O  0.79872093  0.90061096  0.28211786    -0.63000
O567        O  0.61791481  0.88314671  0.27588902    -0.57800
O568        O  0.74748058  0.91375582  0.28341675    -0.94500
O569        O  0.69118834  0.91578194  0.28151138    -0.92900
O570        O  0.61508573  0.78098753  0.27792340    -0.93300
O571        O  0.68069055  0.78031551  0.28160818    -0.92100
C572        C  0.71993079  0.91848841  0.28804391     1.17000
H573        H  0.60705827  0.81942878  0.25517527     0.32900
H574        H  0.74381890  0.81700563  0.25968815     0.43800
H575        H  0.74843763  0.96100865  0.25785939     0.37300
H576        H  0.71251649  0.86961908  0.21505247     0.33800
H577        H  0.65314467  0.71946335  0.26477506     0.25600
H578        H  0.78600969  0.83435459  0.21239414     0.31500
H579        H  0.80420469  0.97082149  0.21294230     0.37400
H580        H  0.61831629  0.80677918  0.28026802     0.31900
H581        H  0.61088796  0.90391728  0.27512404     0.30800
H582        H  0.68342636  0.97438116  0.26763233     0.32400
H583        H  0.76477826  0.01539630  0.22805456     0.31400
H584        H  0.69343193  0.80555121  0.28626527     0.35400
H585        H  0.79493164  0.87395916  0.28319000     0.28100
H586        H  0.59958150  0.82520913  0.20785405     0.32400
H587        H  0.74458924  0.97368624  0.20840550     0.35200
H588        H  0.59448892  0.85893495  0.27288365     0.27800
H589        H  0.82691841  0.91761503  0.28020022     0.40700
H590        H  0.74602273  0.76942909  0.24311782     0.30800
H591        H  0.66018447  0.72802895  0.25020518     0.38400
H592        H  0.74665480  0.00431011  0.24166398     0.30200
H593        H  0.77127176  0.86327402  0.20862960     0.30300
H594        H  0.64081862  0.86300528  0.20593731     0.30600
Zr595      Zr  0.51370951  0.57371643  0.10795111     2.17500
O596        O  0.47415958  0.55509898  0.12721111    -0.51800
O597        O  0.52360130  0.63920056  0.10526820    -0.75000
O598        O  0.55343821  0.60804359  0.12634678    -0.81800
O599        O  0.42627905  0.52640839  0.08596084    -0.83500
O600        O  0.61080899  0.60802533  0.12485715    -0.79200
O601        O  0.44771187  0.56170160  0.10419523    -0.90800
O602        O  0.55881553  0.66365180  0.08711864    -0.76800
O603        O  0.57968921  0.61060092  0.10077843    -0.86200
O604        O  0.51023539  0.58044950  0.08555816    -0.85900
O605        O  0.54402157  0.53598491  0.11370059    -0.72700
O606        O  0.47860899  0.50799351  0.09975352    -0.84800
Zr607      Zr  0.57249099  0.51386245  0.07504606     2.26400
Zr608      Zr  0.60967522  0.57257707  0.10580853     2.06300
Zr609      Zr  0.47688777  0.51525611  0.07731475     2.10000
Zr610      Zr  0.57623854  0.61708686  0.07852899     1.78800
O611        O  0.42324781  0.44761711  0.07738016    -0.93600
O612        O  0.63946755  0.67522528  0.08266819    -0.41400
O613        O  0.54284868  0.55239872  0.06990971    -0.78100
O614        O  0.60791250  0.57988692  0.08322840    -0.96800
O615        O  0.57604996  0.50750488  0.09741972    -0.90100
O616        O  0.50633701  0.47662340  0.08223137    -0.92900
C617        C  0.54000303  0.66583698  0.09674187     1.00900
C618        C  0.42169080  0.54376571  0.09556080     1.13800
C619        C  0.58773814  0.61739115  0.13042970     1.04600
O620        O  0.67124425  0.63463197  0.10480181    -0.95100
O621        O  0.65900562  0.55745286  0.09850517    -0.90800
O622        O  0.63869651  0.52686166  0.07943725    -0.83900
C623        C  0.66359648  0.54132406  0.08856286     1.11200
O624        O  0.47044061  0.45631358  0.12380482    -0.97000
Zr625      Zr  0.51046266  0.47143392  0.10471792     1.88900
O626        O  0.55664302  0.44573257  0.07717674    -0.73700
O627        O  0.63021245  0.54779126  0.12368500    -0.52900
O628        O  0.54238516  0.45542656  0.12161364    -0.97600
O629        O  0.44787432  0.41089588  0.10235704    -0.54800
O630        O  0.52521275  0.42366519  0.09599249    -0.74200
C631        C  0.54104493  0.41960549  0.08591973     0.98100
O632        O  0.60909112  0.51731449  0.05595479    -0.63000
O633        O  0.44196845  0.52811082  0.06056664    -0.57800
O634        O  0.54345100  0.50296298  0.05383221    -0.94500
O635        O  0.48675100  0.50434974  0.05539918    -0.92900
O636        O  0.54845862  0.63301703  0.06037758    -0.93300
O637        O  0.61842276  0.63852882  0.05989115    -0.92100
C638        C  0.51290861  0.50172379  0.04897264     1.17000
H639        H  0.49606607  0.59375194  0.08338905     0.32900
H640        H  0.63414913  0.59336097  0.07980807     0.43800
H641        H  0.49260114  0.45138337  0.07809102     0.37300
H642        H  0.54433026  0.53380611  0.12283839     0.33800
H643        H  0.63832752  0.69666970  0.07814108     0.25600
H644        H  0.65114005  0.57138686  0.12797127     0.31500
H645        H  0.52834945  0.42640617  0.12188134     0.37400
H646        H  0.56164945  0.66200726  0.06037432     0.31900
H647        H  0.41391278  0.50865120  0.06183480     0.30800
H648        H  0.42002771  0.43949904  0.06835305     0.32400
H649        H  0.45147075  0.39073136  0.10678263     0.31400
H650        H  0.62215087  0.61612579  0.05780032     0.35400
H651        H  0.63371784  0.54291006  0.05632621     0.28100
H652        H  0.47826165  0.58002495  0.13087648     0.32400
H653        H  0.46730947  0.43136439  0.12709758     0.35200
H654        H  0.44447858  0.55373091  0.06272089     0.27800
H655        H  0.61707887  0.49734177  0.05706012     0.40700
H656        H  0.68150673  0.63576197  0.09613973     0.30800
H657        H  0.63880836  0.68107420  0.09178254     0.38400
H658        H  0.44621046  0.40390040  0.09325768     0.30200
H659        H  0.60791739  0.53704065  0.12968723     0.30300
H660        H  0.48724293  0.54592931  0.13320262     0.30600
Zr661      Zr  0.50166003  0.97915514  0.10824578     2.17500
O662        O  0.51861839  0.95708143  0.12762940    -0.51800
O663        O  0.43642499  0.92360137  0.10439894    -0.75000
O664        O  0.46614516  0.98431548  0.12629109    -0.81800
O665        O  0.54829922  0.93751543  0.08723064    -0.83500
O666        O  0.47222999  0.04468329  0.12566145    -0.79200
O667        O  0.51494557  0.92603804  0.10573091    -0.90800
O668        O  0.40984560  0.93867857  0.08768559    -0.76800
O669        O  0.46722970  0.01105095  0.10140246    -0.86200
O670        O  0.49375547  0.96882940  0.08590011    -0.85900
O671        O  0.54311493  0.04669763  0.11413871    -0.72700
O672        O  0.56691310  0.00789823  0.09982026    -0.84800
Zr673      Zr  0.56467612  0.09806252  0.07546091     2.26400
Zr674      Zr  0.50884068  0.07853207  0.10668526     2.06300
Zr675      Zr  0.55853812  0.99835140  0.07749190     2.10000
Zr676      Zr  0.45965126  0.00119284  0.07910725     1.78800
O677        O  0.62534483  0.01047305  0.07652934    -0.93600
O678        O  0.40421761  0.01109951  0.08271191    -0.41400
O679        O  0.52383271  0.03012842  0.07031600    -0.78100
O680        O  0.49948838  0.06966798  0.08408981    -0.96800
O681        O  0.57322542  0.10839818  0.09779384    -0.90100
O682        O  0.59983487  0.06650633  0.08226273    -0.92900
C683        C  0.40827640  0.91580394  0.09663390     1.00900
C684        C  0.53229219  0.91694065  0.09726371     1.13800
C685        C  0.45952352  0.01079020  0.13074174     1.04600
O686        O  0.45197441  0.08718845  0.10750162    -0.95100
O687        O  0.52274158  0.14205674  0.09912953    -0.90800
O688        O  0.55116117  0.15125545  0.07976011    -0.83900
C689        C  0.53760011  0.16218526  0.08901993     1.11200
O690        O  0.62679215  0.04773708  0.12175685    -0.97000
Zr691      Zr  0.60718020  0.07625248  0.10469634     1.88900
O692        O  0.63317262  0.14907718  0.07752129    -0.73700
O693        O  0.54104299  0.12320046  0.12438088    -0.52900
O694        O  0.62037669  0.11791029  0.12327430    -0.97600
O695        O  0.66855426  0.07665949  0.10128911    -0.54800
O696        O  0.65452360  0.14084104  0.09667452    -0.74200
C697        C  0.65856894  0.16055076  0.08651064     0.98100
O698        O  0.56627198  0.13436372  0.05649576    -0.63000
O699        O  0.54068592  0.94784053  0.06133413    -0.57800
O700        O  0.57253013  0.07830424  0.05409354    -0.94500
O701        O  0.56946865  0.01935300  0.05555578    -0.92900
O702        O  0.44358513  0.95640571  0.06124505    -0.93300
O703        O  0.43898935  0.02144279  0.06013759    -0.92100
C704        C  0.57281243  0.04857939  0.04914652     1.17000
H705        H  0.47951588  0.94130612  0.08373776     0.32900
H706        H  0.48656261  0.08324737  0.08088581     0.43800
H707        H  0.62467504  0.07724444  0.07793233     0.37300
H708        H  0.54565870  0.04866685  0.12327661     0.33800
H709        H  0.38161162  0.98810850  0.07874672     0.25600
H710        H  0.52031826  0.12707795  0.12821086     0.31500
H711        H  0.64908379  0.13580100  0.12320260     0.37400
H712        H  0.46904809  0.96437631  0.05712308     0.31900
H713        H  0.55910043  0.93792125  0.06252559     0.30800
H714        H  0.63102427  0.00565548  0.08530135     0.32400
H715        H  0.68881039  0.10092598  0.10547284     0.31400
H716        H  0.46193270  0.04698574  0.05779612     0.35400
H717        H  0.54099414  0.13400163  0.05632790     0.28100
H718        H  0.49333168  0.93741835  0.13141490     0.32400
H719        H  0.64823608  0.07013837  0.12635219     0.35200
H720        H  0.51488082  0.92595329  0.06401149     0.27800
H721        H  0.58635939  0.16202245  0.05814249     0.40700
H722        H  0.44296265  0.08456485  0.09858645     0.30800
H723        H  0.39913148  0.00714656  0.09195799     0.38400
H724        H  0.67419949  0.08170994  0.09210575     0.30200
H725        H  0.54595980  0.10773081  0.13077281     0.30300
H726        H  0.52908414  0.97979220  0.13348070     0.30600
Zr727      Zr  0.24309985  0.85056998  0.23062247     2.17500
O728        O  0.22903010  0.80897804  0.21197814    -0.51800
O729        O  0.30914280  0.86259910  0.23441628    -0.75000
O730        O  0.27683924  0.89032996  0.21215663    -0.81800
O731        O  0.19753048  0.76305856  0.25269096    -0.83500
O732        O  0.27608531  0.94752288  0.21367035    -0.79200
O733        O  0.22957183  0.78392413  0.23381971    -0.90800
O734        O  0.33253461  0.89927214  0.25234574    -0.76800
O735        O  0.27691769  0.91699348  0.23757570    -0.86200
O736        O  0.25012330  0.84845241  0.25301953    -0.85900
O737        O  0.20234919  0.87703502  0.22428147    -0.72700
O738        O  0.17751516  0.81390317  0.23875449    -0.84800
Zr739      Zr  0.17854595  0.90624542  0.26278615     2.26400
Zr740      Zr  0.23595742  0.94327374  0.23186021     2.06300
Zr741      Zr  0.18520515  0.81319672  0.26122844     2.10000
Zr742      Zr  0.28377750  0.91481105  0.25990952     1.78800
O743        O  0.12067677  0.75472239  0.26263075    -0.93600
O744        O  0.34172188  0.97829701  0.25586415    -0.41400
O745        O  0.21923407  0.87956005  0.26852664    -0.78100
O746        O  0.24423071  0.94322455  0.25448347    -0.96800
O747        O  0.17113588  0.90833405  0.24039760    -0.90100
O748        O  0.14413723  0.83964532  0.25584976    -0.92900
C749        C  0.33548909  0.88005161  0.24299377     1.00900
C750        C  0.21354084  0.75848242  0.24271814     1.13800
C751        C  0.28606897  0.92472444  0.20818136     1.04600
O752        O  0.29169731  0.00881003  0.22879700    -0.95100
O753        O  0.22552452  0.99506910  0.24011536    -0.90800
O754        O  0.19135969  0.97262861  0.25853765    -0.83900
C755        C  0.20855407  0.99904226  0.24995264     1.11200
O756        O  0.12119764  0.80253775  0.21409653    -0.97000
Zr757      Zr  0.13778279  0.84213270  0.23337449     1.88900
O758        O  0.11044758  0.88889648  0.26008377    -0.73700
O759        O  0.19866804  0.94945849  0.21442307    -0.52900
O760        O  0.12017682  0.87286115  0.21649948    -0.97600
O761        O  0.08178030  0.77618850  0.23585885    -0.54800
O762        O  0.08682834  0.85256867  0.24221166    -0.74200
C763        C  0.08312670  0.87012968  0.25193527     0.98100
O764        O  0.18324058  0.94276417  0.28205999    -0.63000
O765        O  0.20928165  0.78963060  0.27847342    -0.57800
O766        O  0.16084804  0.87395452  0.28354401    -0.94500
O767        O  0.16812134  0.82023123  0.28262112    -0.92900
O768        O  0.29842834  0.88813208  0.27863615    -0.93300
O769        O  0.30369669  0.95908765  0.27805124    -0.92100
C770        C  0.16080601  0.84414918  0.28855269     1.17000
H771        H  0.26423004  0.83517963  0.25531579     0.32900
H772        H  0.25707627  0.96973824  0.25770396     0.43800
H773        H  0.11903388  0.82509237  0.26000914     0.37300
H774        H  0.20028767  0.87672013  0.21512672     0.33800
H775        H  0.36345012  0.97673791  0.26000782     0.25600
H776        H  0.19969139  0.97475326  0.21591919     0.31500
H777        H  0.09117818  0.85857368  0.21640431     0.37400
H778        H  0.32729740  0.90349420  0.27945298     0.31900
H779        H  0.19504628  0.76071936  0.27764573     0.30800
H780        H  0.10958906  0.75748972  0.27073977     0.32400
H781        H  0.05887004  0.77824833  0.23310292     0.31400
H782        H  0.27991918  0.96009260  0.28039542     0.35400
H783        H  0.20933671  0.96678728  0.28174464     0.28100
H784        H  0.25480876  0.81671216  0.20814237     0.32400
H785        H  0.09533265  0.79821703  0.21132831     0.35200
H786        H  0.23673581  0.79812682  0.27621007     0.27800
H787        H  0.16418245  0.95193943  0.28099900     0.40700
H788        H  0.31440773  0.00725734  0.23208079     0.30800
H789        H  0.34677703  0.97828319  0.24665290     0.38400
H790        H  0.07830988  0.77187068  0.24514174     0.30200
H791        H  0.21493168  0.95405696  0.20675885     0.30300
H792        H  0.21604338  0.81804961  0.20592047     0.30600
Zr793      Zr  0.82142075  0.64332727  0.77474628     2.17500
O794        O  0.83706121  0.62252811  0.79465731    -0.51800
O795        O  0.75738551  0.58653704  0.77101132    -0.75000
O796        O  0.78221525  0.64767467  0.79182656    -0.81800
O797        O  0.87565076  0.60607437  0.75524610    -0.83500
O798        O  0.78232548  0.70530369  0.78993379    -0.79200
O799        O  0.83742371  0.59136258  0.77279881    -0.90800
O800        O  0.73219642  0.59847245  0.75326841    -0.76800
O801        O  0.78478579  0.67130819  0.76637216    -0.86200
O802        O  0.81805016  0.63249796  0.75238453    -0.85900
O803        O  0.85713755  0.71160471  0.78044683    -0.72700
O804        O  0.88820644  0.67554085  0.76761545    -0.84800
Zr805      Zr  0.88311333  0.76141851  0.74147981     2.26400
Zr806      Zr  0.82090748  0.73965475  0.77136791     2.06300
Zr807      Zr  0.88437856  0.66564365  0.74518037     2.10000
Zr808      Zr  0.78122097  0.66048004  0.74418421     1.78800
O809        O  0.95345630  0.68497047  0.74516879    -0.93600
O810        O  0.72485376  0.66945330  0.74661437    -0.41400
O811        O  0.84696666  0.69269181  0.73666376    -0.78100
O812        O  0.81601199  0.72950351  0.74876271    -0.96800
O813        O  0.88691567  0.77271336  0.76380327    -0.90100
O814        O  0.92057355  0.73422847  0.74990208    -0.92900
C815        C  0.73002306  0.57719865  0.76281033     1.00900
C816        C  0.85798623  0.58441244  0.76488093     1.13800
C817        C  0.77185514  0.67235006  0.79538451     1.04600
O818        O  0.76063712  0.74200810  0.77329412    -0.95100
O819        O  0.82653430  0.79855325  0.76188285    -0.90800
O820        O  0.86569331  0.81231208  0.74459223    -0.83900
C821        C  0.84519335  0.81997396  0.75230739     1.11200
O822        O  0.94059015  0.72427415  0.79201924    -0.97000
Zr823      Zr  0.92281324  0.74430746  0.77233747     1.88900
O824        O  0.95059215  0.81472265  0.74448085    -0.73700
O825        O  0.85194333  0.78832538  0.78810872    -0.52900
O826        O  0.93254569  0.79057892  0.78925799    -0.97600
O827        O  0.98348055  0.74238253  0.77042767    -0.54800
O828        O  0.97102045  0.80710504  0.76383837    -0.74200
C829        C  0.97591938  0.82626805  0.75351125     0.98100
O830        O  0.88438019  0.79536694  0.72192035    -0.63000
O831        O  0.87632104  0.61531196  0.73000746    -0.57800
O832        O  0.89488588  0.74157297  0.72058290    -0.94500
O833        O  0.89329123  0.68343159  0.72286875    -0.92900
O834        O  0.76102342  0.61050554  0.72774625    -0.93300
O835        O  0.76849446  0.67919424  0.72342296    -0.92100
C836        C  0.89579205  0.71163929  0.71606856     1.17000
H837        H  0.80552288  0.60490144  0.75036662     0.32900
H838        H  0.80209649  0.74117683  0.74487078     0.43800
H839        H  0.94627270  0.74638345  0.74609702     0.37300
H840        H  0.85796433  0.71414655  0.78958736     0.33800
H841        H  0.70359337  0.64734917  0.74186030     0.25600
H842        H  0.83152339  0.79442917  0.79077495     0.31500
H843        H  0.96061213  0.81084860  0.78881869     0.37400
H844        H  0.73251801  0.59998921  0.72671890     0.31900
H845        H  0.89694156  0.60887191  0.73209492     0.30800
H846        H  0.95765909  0.67577896  0.75345936     0.32400
H847        H  0.00306483  0.76518212  0.77538365     0.31400
H848        H  0.79463711  0.69898433  0.72021080     0.35400
H849        H  0.85777183  0.79174766  0.72103026     0.28100
H850        H  0.81151631  0.60272746  0.79825727     0.32400
H851        H  0.96410265  0.74791347  0.79528809     0.35200
H852        H  0.85129443  0.59155598  0.73224496     0.27800
H853        H  0.90170146  0.82368678  0.72362428     0.40700
H854        H  0.74813069  0.73409506  0.76482923     0.30800
H855        H  0.71723916  0.66335480  0.75565052     0.38400
H856        H  0.99196322  0.74952468  0.76150448     0.30200
H857        H  0.85439770  0.77377161  0.79538622     0.30300
H858        H  0.84659411  0.64545968  0.80038014     0.30600
Zr859      Zr  0.55527390  0.50679546  0.89524848     2.17500
O860        O  0.53906431  0.46833410  0.87576508    -0.51800
O861        O  0.62021053  0.51632618  0.89871789    -0.75000
O862        O  0.59184135  0.54888988  0.87748354    -0.81800
O863        O  0.50893448  0.41913277  0.91703663    -0.83500
O864        O  0.59372072  0.60720707  0.87949437    -0.79200
O865        O  0.54211665  0.44004417  0.89837205    -0.90800
O866        O  0.64559293  0.55513904  0.91609437    -0.76800
O867        O  0.59072175  0.57277575  0.90255104    -0.86200
O868        O  0.56162565  0.50323364  0.91767241    -0.85900
O869        O  0.51686337  0.53609170  0.88918143    -0.72700
O870        O  0.48977507  0.47079946  0.90340300    -0.84800
Zr871      Zr  0.49285224  0.56368948  0.92773818     2.26400
Zr872      Zr  0.55188840  0.60170104  0.89725550     2.06300
Zr873      Zr  0.49657473  0.46903707  0.92587666     2.10000
Zr874      Zr  0.59700013  0.56928530  0.92478667     1.78800
O875        O  0.43023454  0.41314281  0.92644586    -0.93600
O876        O  0.65287623  0.63402879  0.92061045    -0.41400
O877        O  0.53216461  0.53510733  0.93320522    -0.78100
O878        O  0.55922040  0.60004078  0.91985823    -0.96800
O879        O  0.48650597  0.56700178  0.90535472    -0.90100
O880        O  0.45699530  0.49734449  0.92055379    -0.92900
C881        C  0.64765404  0.53509000  0.90682238     1.00900
C882        C  0.52522341  0.41429948  0.90716450     1.13800
C883        C  0.60352932  0.58431130  0.87397777     1.04600
O884        O  0.60879330  0.66734246  0.89576926    -0.95100
O885        O  0.54096790  0.65286298  0.90550166    -0.90800
O886        O  0.51183682  0.63243906  0.92475687    -0.83900
C887        C  0.52705594  0.65804120  0.91585916     1.11200
O888        O  0.44090066  0.46085590  0.87911107    -0.97000
Zr889      Zr  0.45208832  0.50101020  0.89799523     1.88900
O890        O  0.42561902  0.54945063  0.92395254    -0.73700
O891        O  0.51886065  0.61257297  0.87949092    -0.52900
O892        O  0.43470747  0.52978122  0.88044259    -0.97600
O893        O  0.39475671  0.43588676  0.90012101    -0.54800
O894        O  0.40121065  0.51243032  0.90614589    -0.74200
C895        C  0.39833481  0.53102658  0.91569512     0.98100
O896        O  0.48694422  0.59400193  0.94719645    -0.63000
O897        O  0.51408935  0.43880780  0.94294738    -0.57800
O898        O  0.48201647  0.53459997  0.94895178    -0.94500
O899        O  0.48502138  0.47876599  0.94781699    -0.92900
O900        O  0.61878778  0.54357546  0.94204256    -0.93300
O901        O  0.61322282  0.60728092  0.94433646    -0.92100
C902        C  0.48104093  0.50444536  0.95406760     1.17000
H903        H  0.57533588  0.48947169  0.91986017     0.32900
H904        H  0.57283322  0.62627225  0.92331099     0.43800
H905        H  0.43165433  0.48329878  0.92459626     0.37300
H906        H  0.51519041  0.53662371  0.88002969     0.33800
H907        H  0.67505297  0.63401892  0.92502158     0.25600
H908        H  0.50213478  0.62179868  0.88342780     0.31500
H909        H  0.40571279  0.51524221  0.88025584     0.37400
H910        H  0.59444710  0.52500282  0.94656208     0.31900
H911        H  0.49412529  0.41058998  0.94261550     0.30800
H912        H  0.42303485  0.40969693  0.93555212     0.32400
H913        H  0.37354510  0.43751235  0.89563440     0.31400
H914        H  0.58823937  0.60523489  0.94705275     0.35400
H915        H  0.51397238  0.61466636  0.94933558     0.28100
H916        H  0.56441749  0.47262038  0.87247045     0.32400
H917        H  0.41532357  0.45536954  0.87563093     0.35200
H918        H  0.53871938  0.44018379  0.94017876     0.27800
H919        H  0.47303041  0.60818698  0.94487714     0.40700
H920        H  0.61932731  0.67374228  0.90452885     0.30800
H921        H  0.65860334  0.63379355  0.91146317     0.38400
H922        H  0.38746790  0.43343740  0.90920405     0.30200
H923        H  0.53976033  0.63596882  0.87511779     0.30300
H924        H  0.53081043  0.48191958  0.86965174     0.30600
Zr925      Zr  0.41831780  0.22533068  0.77555724     2.17500
O926        O  0.44000910  0.26290000  0.79522433    -0.51800
O927        O  0.47455974  0.21700535  0.77202865    -0.75000
O928        O  0.41268595  0.18214455  0.79299949    -0.81800
O929        O  0.46429867  0.30943824  0.75254168    -0.83500
O930        O  0.35078467  0.12964858  0.79317854    -0.79200
O931        O  0.47278391  0.29102809  0.77225436    -0.90800
O932        O  0.46025782  0.17654066  0.75505195    -0.76800
O933        O  0.38498496  0.15852950  0.76914879    -0.86200
O934        O  0.42850394  0.22590182  0.75323435    -0.85900
O935        O  0.35093574  0.20080928  0.78120481    -0.72700
O936        O  0.39114774  0.26266967  0.76656031    -0.84800
Zr937      Zr  0.29997461  0.16945554  0.74246759     2.26400
Zr938      Zr  0.31771715  0.13392342  0.77424449     2.06300
Zr939      Zr  0.40037953  0.26152409  0.74418384     2.10000
Zr940      Zr  0.39543048  0.15907205  0.74697469     1.78800
O941        O  0.39432231  0.31997106  0.74336645    -0.93600
O942        O  0.39271506  0.09726104  0.75178864    -0.41400
O943        O  0.36767685  0.19463047  0.73738921    -0.78100
O944        O  0.32718264  0.13241000  0.75182104    -0.96800
O945        O  0.28995515  0.16948813  0.76474187    -0.90100
O946        O  0.33270759  0.23656134  0.74883428    -0.92900
C947        C  0.48341499  0.19843500  0.76389467     1.00900
C948        C  0.48391808  0.31485893  0.76282235     1.13800
C949        C  0.38566084  0.14960705  0.79766265     1.04600
O950        O  0.31064474  0.06896576  0.77517373    -0.95100
O951        O  0.25338422  0.08544137  0.76647073    -0.90800
O952        O  0.24279343  0.10668498  0.74758132    -0.83900
C953        C  0.23218551  0.08185918  0.75672839     1.11200
O954        O  0.34355900  0.27666935  0.79028974    -0.97000
Zr955      Zr  0.32287976  0.23606880  0.77119265     1.88900
O956        O  0.24809537  0.18568291  0.74438271    -0.73700
O957        O  0.27354124  0.12294397  0.79192550    -0.52900
O958        O  0.27393162  0.20739231  0.78797276    -0.97600
O959        O  0.33458146  0.30206426  0.76708159    -0.54800
O960        O  0.26152367  0.22442432  0.76181365    -0.74200
C961        C  0.23970336  0.20502385  0.75237871     0.98100
O962        O  0.27241220  0.12488848  0.72432552    -0.63000
O963        O  0.44779031  0.28925388  0.72695007    -0.57800
O964        O  0.31365535  0.20269839  0.72190009    -0.94500
O965        O  0.37770054  0.25072651  0.72243401    -0.92900
O966        O  0.43509823  0.18342957  0.72785433    -0.93300
O967        O  0.36841268  0.11041855  0.73005915    -0.92100
C968        C  0.34541798  0.22889706  0.71659798     1.17000
H969        H  0.45586644  0.23870237  0.75096696     0.32900
H970        H  0.31287485  0.10565159  0.74883101     0.43800
H971        H  0.32267012  0.25096607  0.74428333     0.37300
H972        H  0.34882263  0.20193947  0.79031981     0.33800
H973        H  0.41689197  0.09983196  0.74802812     0.25600
H974        H  0.26911714  0.09824167  0.79587729     0.31500
H975        H  0.25188658  0.18357238  0.78415547     0.37400
H976        H  0.44438697  0.16470847  0.72620658     0.31900
H977        H  0.46253503  0.31792109  0.72842501     0.30800
H978        H  0.38649686  0.32096742  0.73449361     0.32400
H979        H  0.31318758  0.30335503  0.77155027     0.31400
H980        H  0.34605754  0.11246636  0.72669701     0.35400
H981        H  0.29365245  0.13392951  0.71796151     0.28100
H982        H  0.46030810  0.25769278  0.79869414     0.32400
H983        H  0.32178580  0.28128556  0.79246705     0.35200
H984        H  0.46678212  0.28031895  0.72860662     0.27800
H985        H  0.26920396  0.09951472  0.72720034     0.40700
H986        H  0.32223791  0.06652051  0.76713342     0.30800
H987        H  0.39698109  0.09790985  0.76107943     0.38400
H988        H  0.32846637  0.30230495  0.75797228     0.30200
H989        H  0.28938744  0.14350216  0.79823094     0.30300
H990        H  0.41760262  0.24945159  0.80113252     0.30600
Zr991      Zr  0.54765024  0.09092314  0.89692883     2.17500
O992        O  0.58682619  0.11320191  0.87761086    -0.51800
O993        O  0.53915093  0.14699921  0.90027736    -0.75000
O994        O  0.50627992  0.08760215  0.87925459    -0.81800
O995        O  0.63359948  0.13260899  0.91963455    -0.83500
O996        O  0.44927264  0.02920960  0.88033083    -0.79200
O997        O  0.61372789  0.14439142  0.90065999    -0.90800
O998        O  0.49882659  0.13270729  0.91725004    -0.76800
O999        O  0.48098740  0.05931651  0.90344581    -0.86200
O1000       O  0.54861974  0.10027597  0.91931490    -0.85900
O1001       O  0.52053331  0.02347306  0.89078879    -0.72700
O1002       O  0.58361053  0.06198434  0.90561973    -0.84800
Zr1003     Zr  0.48941180  0.97152070  0.92928600     2.26400
Zr1004     Zr  0.45406180  0.99188521  0.89796975     2.06300
Zr1005     Zr  0.58304570  0.07048906  0.92807725     2.10000
Zr1006     Zr  0.48199519  0.06862619  0.92567753     1.78800
O1007       O  0.64201822  0.06547798  0.92926130    -0.93600
O1008       O  0.41825331  0.06100049  0.92060824    -0.41400
O1009       O  0.51644624  0.03917836  0.93501172    -0.78100
O1010       O  0.45326986  0.00037980  0.92049031    -0.96800
O1011       O  0.48846269  0.96214555  0.90693296    -0.90100
O1012       O  0.55618322  0.00306054  0.92276488    -0.92900
C1013       C  0.52020303  0.15562685  0.90829618     1.00900
C1014       C  0.63878804  0.15341010  0.90966686     1.13800
C1015       C  0.47160039  0.06302908  0.87533988     1.04600
O1016       O  0.38728012  0.97997544  0.89714166    -0.95100
O1017       O  0.40556947  0.92680708  0.90523330    -0.90800
O1018       O  0.42695999  0.91449272  0.92379514    -0.83900
C1019       C  0.40191642  0.90475714  0.91473959     1.11200
O1020       O  0.59132570  0.01463947  0.88046731    -0.97000
Zr1021     Zr  0.55485011  0.99392493  0.90035938     1.88900
O1022       O  0.50620682  0.92005648  0.92734787    -0.73700
O1023       O  0.44561459  0.95323395  0.87897086    -0.52900
O1024       O  0.52379195  0.94222552  0.88448570    -0.97600
O1025       O  0.62172907  0.00678228  0.90268678    -0.54800
O1026       O  0.54681712  0.93477249  0.91035601    -0.74200
C1027       C  0.52751571  0.91300596  0.91978933     0.98100
O1028       O  0.44517541  0.94543541  0.94749538    -0.63000
O1029       O  0.60698662  0.11937078  0.94498636    -0.57800
O1030       O  0.52250749  0.98295255  0.94973351    -0.94500
O1031       O  0.57696640  0.04340132  0.94911836    -0.92900
O1032       O  0.50548924  0.11396083  0.94353368    -0.93300
O1033       O  0.43874191  0.04507707  0.94404870    -0.92100
C1034       C  0.55303595  0.01159521  0.95487115     1.17000
H1035       H  0.56196144  0.12772000  0.92157137     0.32900
H1036       H  0.42661080  0.98651084  0.92355488     0.43800
H1037       H  0.57044120  0.99249820  0.92711633     0.37300
H1038       H  0.52116500  0.02159403  0.88164764     0.33800
H1039       H  0.41748085  0.08226811  0.92536922     0.25600
H1040       H  0.45007807  0.93188823  0.88185859     0.31500
H1041       H  0.53723485  0.92678795  0.88520644     0.37400
H1042       H  0.52322383  0.10740403  0.94822499     0.31900
H1043       H  0.63542614  0.12895541  0.94556287     0.30800
H1044       H  0.66140809  0.08962501  0.93371048     0.32400
H1045       H  0.62091031  0.98267231  0.89958156     0.31400
H1046       H  0.44984819  0.03264626  0.94954265     0.35400
H1047       H  0.45353984  0.96792605  0.95334234     0.28100
H1048       H  0.58530338  0.13641767  0.87483120     0.32400
H1049       H  0.59694846  0.99360267  0.87815586     0.35200
H1050       H  0.60522640  0.14181838  0.94153763     0.27800
H1051       H  0.41936982  0.94044940  0.94440366     0.40700
H1052       H  0.38962651  0.00550006  0.89930962     0.30800
H1053       H  0.42026045  0.06900993  0.91159598     0.38400
H1054       H  0.62579157  0.00666334  0.91196307     0.30200
H1055       H  0.41720066  0.94009924  0.87713619     0.30300
H1056       H  0.57179605  0.09286084  0.87114844     0.30600
Zr1057     Zr  0.96097951  0.49747945  0.89745707     2.17500
O1058       O  0.93911552  0.51387793  0.87795536    -0.51800
O1059       O  0.90602218  0.43216064  0.90122388    -0.75000
O1060       O  0.96588877  0.46023992  0.87987387    -0.81800
O1061       O  0.92131654  0.54850294  0.91753307    -0.83500
O1062       O  0.02217811  0.45824042  0.88237961    -0.79200
O1063       O  0.90803199  0.51143297  0.89969839    -0.90800
O1064       O  0.91765070  0.40990190  0.91969774    -0.76800
O1065       O  0.99066719  0.46238855  0.90566338    -0.86200
O1066       O  0.95088729  0.49377741  0.91986867    -0.85900
O1067       O  0.02859346  0.53524417  0.89134578    -0.72700
O1068       O  0.99147757  0.56413822  0.90466576    -0.84800
Zr1069     Zr  0.07937980  0.56232355  0.93030304     2.26400
Zr1070     Zr  0.05828547  0.50043460  0.90023233     2.06300
Zr1071     Zr  0.98223489  0.56003602  0.92709936     2.10000
Zr1072     Zr  0.98097902  0.45893592  0.92795817     1.78800
O1073       O  0.99188950  0.62582797  0.92514714    -0.93600
O1074       O  0.98853837  0.40174563  0.92497277    -0.41400
O1075       O  0.01138926  0.52465830  0.93584049    -0.78100
O1076       O  0.04923978  0.49577655  0.92280070    -0.96800
O1077       O  0.08925664  0.56615574  0.90792665    -0.90100
O1078       O  0.05000737  0.59778092  0.92195333    -0.92900
C1079       C  0.89628943  0.40631437  0.91000896     1.00900
C1080       C  0.90004548  0.53067507  0.90782329     1.13800
C1081       C  0.99000801  0.44897036  0.87655692     1.04600
O1082       O  0.06407906  0.44199931  0.90215317    -0.95100
O1083       O  0.12275096  0.51782065  0.90821316    -0.90800
O1084       O  0.13538788  0.55326350  0.92638645    -0.83900
C1085       C  0.14478882  0.53653271  0.91770234     1.11200
O1086       O  0.03605244  0.61830270  0.88058670    -0.97000
Zr1087     Zr  0.05971521  0.60092865  0.89954118     1.88900
O1088       O  0.13236943  0.62914046  0.92711170    -0.73700
O1089       O  0.10212631  0.52662528  0.88203266    -0.52900
O1090       O  0.10489855  0.61124007  0.88223620    -0.97600
O1091       O  0.05855966  0.66207114  0.90137440    -0.54800
O1092       O  0.12291786  0.64946758  0.90787877    -0.74200
C1093       C  0.14294324  0.65409061  0.91799769     0.98100
O1094       O  0.10395305  0.54540414  0.94917020    -0.63000
O1095       O  0.93301803  0.54312258  0.94361084    -0.57800
O1096       O  0.06818032  0.58934472  0.94976548    -0.94500
O1097       O  0.00867396  0.58448251  0.94807558    -0.92900
O1098       O  0.93583248  0.44149948  0.94572807    -0.93300
O1099       O  0.00263383  0.44406387  0.94780328    -0.92100
C1100       C  0.03984462  0.59279815  0.95435015     1.17000
H1101       H  0.92336958  0.48052019  0.92198217     0.32900
H1102       H  0.06231893  0.48291339  0.92646543     0.43800
H1103       H  0.06141244  0.62354636  0.92571827     0.37300
H1104       H  0.03072959  0.53604811  0.88219321     0.33800
H1105       H  0.97038935  0.38226756  0.93119523     0.25600
H1106       H  0.10992475  0.50682773  0.88022779     0.31500
H1107       H  0.12665156  0.60943303  0.88624963     0.37400
H1108       H  0.93546305  0.46588574  0.94768035     0.31900
H1109       H  0.92406386  0.56240476  0.94267588     0.30800
H1110       H  0.98175106  0.63017637  0.93321510     0.32400
H1111       H  0.08187096  0.68161766  0.89661465     0.31400
H1112       H  0.02157725  0.47001066  0.95138500     0.35400
H1113       H  0.08483427  0.54009728  0.95604371     0.28100
H1114       H  0.92057163  0.48849643  0.87394763     0.32400
H1115       H  0.05959654  0.63968891  0.87643069     0.35200
H1116       H  0.91037341  0.51782879  0.94090425     0.27800
H1117       H  0.10025347  0.51915456  0.94727067     0.40700
H1118       H  0.03673690  0.41995582  0.90232265     0.30800
H1119       H  0.97635590  0.39090976  0.91661731     0.38400
H1120       H  0.06493505  0.67016807  0.91036343     0.30200
H1121       H  0.08527115  0.52469011  0.87477135     0.30300
H1122       H  0.96235180  0.52575832  0.87234430     0.30600
Zr1123     Zr  0.83653167  0.23945296  0.77587175     2.17500
O1124       O  0.79592130  0.22462336  0.79480139    -0.51800
O1125       O  0.84878066  0.30592233  0.77293945    -0.75000
O1126       O  0.87664184  0.27147786  0.79440315    -0.81800
O1127       O  0.74658537  0.18995430  0.75501448    -0.83500
O1128       O  0.93128155  0.26624739  0.79342225    -0.79200
O1129       O  0.77056763  0.22730733  0.77277176    -0.90800
O1130       O  0.88896215  0.33146668  0.75589499    -0.76800
O1131       O  0.90247085  0.27423421  0.76862040    -0.86200
O1132       O  0.83261477  0.24585784  0.75352240    -0.85900
O1133       O  0.86410903  0.19930110  0.78163537    -0.72700
O1134       O  0.79945452  0.17377071  0.76776103    -0.84800
Zr1135     Zr  0.89106309  0.17548492  0.74292899     2.26400
Zr1136     Zr  0.92978518  0.23368408  0.77365961     2.06300
Zr1137     Zr  0.79739672  0.18061157  0.74528468     2.10000
Zr1138     Zr  0.89855155  0.28068272  0.74637272     1.78800
O1139       O  0.74370797  0.11326475  0.74341995    -0.93600
O1140       O  0.96506419  0.33559259  0.74846161    -0.41400
O1141       O  0.86346617  0.21596399  0.73784474    -0.78100
O1142       O  0.92798797  0.24139723  0.75114113    -0.96800
O1143       O  0.89419367  0.16873910  0.76530746    -0.90100
O1144       O  0.82476740  0.13993792  0.75020871    -0.92900
C1145       C  0.86906860  0.33392072  0.76514001     1.00900
C1146       C  0.74346947  0.20854319  0.76455602     1.13800
C1147       C  0.90949683  0.27745734  0.79887958     1.04600
O1148       O  0.99114432  0.29594869  0.77386515    -0.95100
O1149       O  0.97895221  0.21914805  0.76558532    -0.90800
O1150       O  0.95755315  0.18821441  0.74658308    -0.83900
C1151       C  0.98298481  0.20287463  0.75556583     1.11200
O1152       O  0.78978885  0.11963727  0.79217438    -0.97000
Zr1153     Zr  0.82850375  0.13467596  0.77275359     1.88900
O1154       O  0.87010184  0.10577420  0.74510416    -0.73700
O1155       O  0.94872847  0.20432720  0.79057187    -0.52900
O1156       O  0.85587848  0.11602108  0.79039024    -0.97600
O1157       O  0.76311906  0.07829834  0.76968704    -0.54800
O1158       O  0.84231120  0.08552394  0.76457799    -0.74200
C1159       C  0.85614461  0.08052763  0.75418081     0.98100
O1160       O  0.93321415  0.17558769  0.72591423    -0.63000
O1161       O  0.76313219  0.19870530  0.72982975    -0.57800
O1162       O  0.86469990  0.17081025  0.72147186    -0.94500
O1163       O  0.80854138  0.17314671  0.72306523    -0.92900
O1164       O  0.86665694  0.30085321  0.73067827    -0.93300
O1165       O  0.93414303  0.29675743  0.72633118    -0.92100
C1166       C  0.83523004  0.17161066  0.71656913     1.17000
H1167       H  0.81917290  0.25998795  0.75147196     0.32900
H1168       H  0.95420527  0.25430381  0.74770248     0.43800
H1169       H  0.81027778  0.11476706  0.74606992     0.37300
H1170       H  0.86431457  0.19701680  0.79077101     0.33800
H1171       H  0.96425732  0.35800551  0.74452285     0.25600
H1172       H  0.97267472  0.22641500  0.79430275     0.31500
H1173       H  0.88379116  0.12680766  0.78817288     0.37400
H1174       H  0.88612871  0.32846034  0.72868354     0.31900
H1175       H  0.73513428  0.17840684  0.73053834     0.30800
H1176       H  0.72589657  0.11008587  0.75051694     0.32400
H1177       H  0.76343392  0.05662985  0.77435146     0.31400
H1178       H  0.92311298  0.27144265  0.72176538     0.35400
H1179       H  0.91689756  0.15208480  0.72065650     0.28100
H1180       H  0.80012396  0.25029396  0.79777731     0.32400
H1181       H  0.78238101  0.09244313  0.79451586     0.35200
H1182       H  0.76482134  0.22306838  0.73309563     0.27800
H1183       H  0.93892357  0.19828327  0.72043097     0.40700
H1184       H  0.00166367  0.29899288  0.76514498     0.30800
H1185       H  0.96825911  0.34168507  0.75765881     0.38400
H1186       H  0.76194380  0.07095123  0.76064454     0.30200
H1187       H  0.92845319  0.19690015  0.79720894     0.30300
H1188       H  0.80840297  0.21639722  0.80134228     0.30600
C1189       C  0.95332335  0.40255033  0.84409366    -0.11800
C1190       C  0.95539449  0.36820983  0.84524299     0.14700
C1191       C  0.96952140  0.36084678  0.85664606     0.01600
C1192       C  0.98189321  0.38839444  0.86651807    -0.16200
C1193       C  0.97950310  0.42267709  0.86542366    -0.11000
C1194       C  0.96521660  0.42979687  0.85399175     0.08300
C1195       C  0.94355656  0.34168379  0.83414441     0.09400
S1196       S  0.97173363  0.31677052  0.85940266    -0.25300
H1197       H  0.99231199  0.38240769  0.87530155     0.19600
S1198       S  0.96271677  0.47360610  0.85119575    -0.31000
H1199       H  0.94276711  0.40838765  0.83531000     0.09900
C1200       C  0.90381227  0.31677236  0.83115394     0.03100
C1201       C  0.89366994  0.29538283  0.81978322    -0.13300
C1202       C  0.92249100  0.29841568  0.81123594    -0.09000
C1203       C  0.96248925  0.32273839  0.81452847     0.06600
C1204       C  0.97247306  0.34408135  0.82588869    -0.14100
S1205       S  0.86603417  0.31248829  0.84182087    -0.31000
H1206       H  0.86303579  0.27645356  0.81748750     0.10800
S1207       S  0.00215879  0.33065289  0.80422098    -0.28100
H1208       H  0.00306477  0.36363580  0.82815053     0.08100
H1209       H  0.99663815  0.49850635  0.85818993     0.26500
H1210       H  0.83395217  0.28785598  0.83406128     0.21300
H1211       H  0.99485250  0.29209357  0.80577581     0.26600
H1212       H  0.94516178  0.29340314  0.84993831     0.15400
C1213       C  0.25070024  0.72696783  0.92364710    -0.11800
C1214       C  0.25319916  0.76169936  0.91924244     0.14700
C1215       C  0.21904848  0.76123351  0.91495696     0.01600
C1216       C  0.18341695  0.72587871  0.91487411    -0.16200
C1217       C  0.18094436  0.69082514  0.91903554    -0.11000
C1218       C  0.21515951  0.69157494  0.92347509     0.08300
C1219       C  0.29226605  0.79714889  0.91829363     0.09400
S1220       S  0.21906005  0.80444220  0.90924092    -0.25300
H1221       H  0.15737418  0.72570151  0.91148073     0.19600
S1222       S  0.21626193  0.64809323  0.92801084    -0.31000
H1223       H  0.27702458  0.72717278  0.92673525     0.09900
C1224       C  0.31321676  0.81773946  0.92917406     0.03100
C1225       C  0.34961957  0.85198549  0.92774962    -0.13300
C1226       C  0.36567521  0.86599417  0.91564179    -0.09000
C1227       C  0.34543038  0.84374075  0.90480012     0.06600
C1228       C  0.30880368  0.81001622  0.90624083    -0.14100
S1229       S  0.29263696  0.80169454  0.94483042    -0.31000
H1230       H  0.36489801  0.86872063  0.93610042     0.10800
S1231       S  0.36524041  0.85562364  0.88895583    -0.28100
H1232       H  0.29313793  0.79338003  0.89790290     0.08100
H1233       H  0.19305987  0.62569032  0.91772402     0.26500
H1234       H  0.32668464  0.82733235  0.95165159     0.21300
H1235       H  0.40397447  0.86845596  0.89280604     0.26600
H1236       H  0.25178277  0.83192634  0.91620593     0.15400
C1237       C  0.73358548  0.23950146  0.89741951    -0.11800
C1238       C  0.74696403  0.26284276  0.90836379     0.14700
C1239       C  0.72436194  0.25043207  0.91956089     0.01600
C1240       C  0.68945818  0.21449350  0.91969751    -0.16200
C1241       C  0.67605539  0.19081159  0.90880094    -0.11000
C1242       C  0.69850326  0.20351270  0.89753266     0.08300
C1243       C  0.78567957  0.29884543  0.90812856     0.09400
S1244       S  0.73904252  0.27873369  0.93404087    -0.25300
H1245       H  0.67232498  0.20513391  0.92836079     0.19600
S1246       S  0.68520152  0.17435127  0.88325604    -0.31000
H1247       H  0.75120931  0.24884769  0.88886182     0.09900
C1248       C  0.81879773  0.29944104  0.91337102     0.03100
C1249       C  0.85458997  0.33475564  0.91367589    -0.13300
C1250       C  0.85783827  0.36976621  0.90904517    -0.09000
C1251       C  0.82415881  0.36894869  0.90394809     0.06600
C1252       C  0.78879809  0.33336330  0.90326294    -0.14100
S1253       S  0.81521345  0.25531189  0.91988383    -0.31000
H1254       H  0.88012629  0.33516623  0.91764218     0.10800
S1255       S  0.82328244  0.41245359  0.89915835    -0.28100
H1256       H  0.76298564  0.33288253  0.89948971     0.08100
H1257       H  0.67023806  0.13813964  0.88955383     0.26500
H1258       H  0.85539581  0.27102465  0.92232429     0.21300
H1259       H  0.84592158  0.43523161  0.90948958     0.26600
H1260       H  0.75712605  0.31568979  0.92813674     0.15400
C1261       C  0.07290879  0.19418817  0.76304997    -0.11800
C1262       C  0.09245244  0.20407846  0.75133735     0.14700
C1263       C  0.07500776  0.21188380  0.74083617     0.01600
C1264       C  0.03890718  0.21035083  0.74240259    -0.16200
C1265       C  0.01967281  0.20127510  0.75421479    -0.11000
C1266       C  0.03662911  0.19206686  0.76455025     0.08300
C1267       C  0.13067028  0.20547600  0.75053184     0.09400
S1268       S  0.09727102  0.22499600  0.72527439    -0.25300
H1269       H  0.02612685  0.21718081  0.73437755     0.19600
S1270       S  0.01260889  0.17539306  0.77970242    -0.31000
H1271       H  0.08583105  0.18747582  0.77106534     0.09900
C1272       C  0.16616003  0.24027077  0.75298873     0.03100
C1273       C  0.20141935  0.23955032  0.75315493    -0.13300
C1274       C  0.20201965  0.20464962  0.75092580    -0.09000
C1275       C  0.16622351  0.16990888  0.74825231     0.06600
C1276       C  0.13116481  0.17082360  0.74799422    -0.14100
S1277       S  0.16633500  0.28540780  0.75611332    -0.31000
H1278       H  0.22866157  0.26620798  0.75517669     0.10800
S1279       S  0.16268040  0.12287841  0.74606893    -0.28100
H1280       H  0.10380114  0.14398103  0.74622076     0.08100
H1281       H  0.97456059  0.15413052  0.77462784     0.26500
H1282       H  0.20681678  0.30877238  0.75832140     0.21300
H1283       H  0.18811460  0.12779042  0.75617389     0.26600
H1284       H  0.12874295  0.21854482  0.72724539     0.15400
C1285       C  0.66749727  0.23887991  0.77154945    -0.11800
C1286       C  0.63282070  0.20472427  0.76814360     0.14700
C1287       C  0.63461111  0.17148115  0.76412928     0.01600
C1288       C  0.67096181  0.17365177  0.76301261    -0.16200
C1289       C  0.70590639  0.20808312  0.76612421    -0.11000
C1290       C  0.70393376  0.24104947  0.77052553     0.08300
C1291       C  0.59589061  0.20585165  0.76733170     0.09400
S1292       S  0.59147118  0.12547846  0.76024678    -0.25300
H1293       H  0.67190890  0.14802049  0.75979144     0.19600
S1294       S  0.74675519  0.28765954  0.77404208    -0.31000
H1295       H  0.66631753  0.26465312  0.77445067     0.09900
C1296       C  0.57671983  0.20897899  0.77817085     0.03100
C1297       C  0.54078794  0.20794367  0.77675196    -0.13300
C1298       C  0.52309558  0.20290359  0.76473969    -0.09000
C1299       C  0.54373821  0.20197360  0.75386247     0.06600
C1300       C  0.57949243  0.20312081  0.75530201    -0.14100
S1301       S  0.59701646  0.21247474  0.79382744    -0.31000
H1302       H  0.52602570  0.21021151  0.78508038     0.10800
S1303       S  0.52737467  0.20131103  0.73782521    -0.28100
H1304       H  0.59484173  0.20192920  0.74692825     0.08100
H1305       H  0.76818392  0.28701128  0.76345409     0.26500
H1306       H  0.56475246  0.20879706  0.80068428     0.21300
H1307       H  0.51371906  0.22749738  0.74028010     0.26600
H1308       H  0.56592734  0.13002460  0.76845862     0.15400
C1309       C  0.43944079  0.11754076  0.82024853    -0.11800
C1310       C  0.41532023  0.10666315  0.83100144     0.14700
C1311       C  0.38052180  0.10860723  0.83059241     0.01600
C1312       C  0.37117933  0.12224016  0.81956633    -0.16200
C1313       C  0.39568526  0.13371530  0.80886690    -0.11000
C1314       C  0.42964752  0.13025941  0.80915386     0.08300
C1315       C  0.42803030  0.09447592  0.84254053     0.09400
S1316       S  0.34723340  0.09477840  0.84383958    -0.25300
H1317       H  0.34483255  0.12435878  0.81938586     0.19600
S1318       S  0.46060722  0.13968774  0.79549564    -0.31000
H1319       H  0.46589401  0.11561048  0.82046157     0.09900
C1320       C  0.42418635  0.05702523  0.84351448     0.03100
C1321       C  0.43787330  0.04720275  0.85444448    -0.13300
C1322       C  0.45614384  0.07439915  0.86431579    -0.09000
C1323       C  0.45963753  0.11185462  0.86332328     0.06600
C1324       C  0.44564138  0.12144545  0.85246483    -0.14100
S1325       S  0.40186161  0.02179336  0.83082482    -0.31000
H1326       H  0.43514447  0.01853114  0.85520083     0.10800
S1327       S  0.48074009  0.14837179  0.87566795    -0.28100
H1328       H  0.44855401  0.15022259  0.85171890     0.08100
H1329       H  0.43019617  0.12585021  0.78648124     0.26500
H1330       H  0.40667803  0.99197904  0.83636430     0.21300
H1331       H  0.46527317  0.12148042  0.88577618     0.26600
H1332       H  0.35538104  0.06667756  0.84894931     0.15400
C1333       C  0.72139129  0.50111820  0.90116075    -0.11800
C1334       C  0.75648600  0.53530433  0.90417346     0.14700
C1335       C  0.75579157  0.56955359  0.90757290     0.01600
C1336       C  0.71996640  0.56858026  0.90827663    -0.16200
C1337       C  0.68458412  0.53432180  0.90539581    -0.11000
C1338       C  0.68551897  0.50025170  0.90171372     0.08300
C1339       C  0.79277891  0.53332434  0.90501714     0.09400
S1340       S  0.79947244  0.61489873  0.91160992    -0.25300
H1341       H  0.71974905  0.59492496  0.91108880     0.19600
S1342       S  0.64176964  0.45394992  0.89890694    -0.31000
H1343       H  0.72184632  0.47458602  0.89878861     0.09900
C1344       C  0.80773209  0.53082177  0.91689843     0.03100
C1345       C  0.84269951  0.53000187  0.91744488    -0.13300
C1346       C  0.86318488  0.53155797  0.90634791    -0.09000
C1347       C  0.84816790  0.53424897  0.89439519     0.06600
C1348       C  0.81284986  0.53474953  0.89387554    -0.14100
S1349       S  0.78209343  0.52844586  0.93139080    -0.31000
H1350       H  0.85403331  0.52781051  0.92659485     0.10800
S1351       S  0.87468137  0.53959600  0.87985595    -0.28100
H1352       H  0.80112746  0.53710341  0.88482098     0.08100
H1353       H  0.63428598  0.46643628  0.88723966     0.26500
H1354       H  0.80770467  0.52454843  0.93978497     0.21300
H1355       H  0.84820533  0.54237021  0.87155527     0.26600
H1356       H  0.82497335  0.60939478  0.90368800     0.15400
C1357       C  0.23989875  0.54207034  0.92911488    -0.11800
C1358       C  0.25668052  0.54102190  0.91748706     0.14700
C1359       C  0.23715023  0.53960251  0.90610366     0.01600
C1360       C  0.20121497  0.53854514  0.90657026    -0.16200
C1361       C  0.18396970  0.53943185  0.91818230    -0.11000
C1362       C  0.20409672  0.54157508  0.92960726     0.08300
C1363       C  0.29315725  0.53878974  0.91751415     0.09400
S1364       S  0.25635416  0.53858787  0.89066496    -0.25300
H1365       H  0.18669189  0.53724543  0.89768515     0.19600
S1366       S  0.18441834  0.54030201  0.94511145    -0.31000
H1367       H  0.25453141  0.54258793  0.93789685     0.09900
C1368       C  0.33013186  0.57203989  0.91979630     0.03100
C1369       C  0.36386208  0.56845654  0.91956567    -0.13300
C1370       C  0.36144720  0.53225778  0.91704020    -0.09000
C1371       C  0.32407289  0.49885011  0.91503796     0.06600
C1372       C  0.29058498  0.50258641  0.91514360    -0.14100
S1373       S  0.33444179  0.61928696  0.92251199    -0.31000
H1374       H  0.39236269  0.59415755  0.92102657     0.10800
S1375       S  0.31684538  0.45032371  0.91287131    -0.28100
H1376       H  0.26212508  0.47690602  0.91352898     0.08100
H1377       H  0.18735513  0.57712484  0.94368111     0.26500
H1378       H  0.37561331  0.64128670  0.92236022     0.21300
H1379       H  0.34704600  0.45581565  0.92122531     0.26600
H1380       H  0.29597209  0.56244591  0.89399101     0.15400
C1381       C  0.51999617  0.32038448  0.89493087    -0.11800
C1382       C  0.52624990  0.30538295  0.90622081     0.14700
C1383       C  0.53333141  0.32688068  0.91759570     0.01600
C1384       C  0.53232781  0.36184164  0.91753650    -0.16200
C1385       C  0.52544794  0.37680090  0.90630821    -0.11000
C1386       C  0.51939711  0.35569291  0.89483332     0.08300
C1387       C  0.52358375  0.26653201  0.90600546     0.09400
S1388       S  0.54356122  0.31128299  0.93253986    -0.25300
H1389       H  0.53764528  0.37791971  0.92636132     0.19600
S1390       S  0.50901868  0.37094822  0.87988520    -0.31000
H1391       H  0.51448746  0.30389002  0.88618924     0.09900
C1392       C  0.49055652  0.23298372  0.91087899     0.03100
C1393       C  0.49016282  0.19726325  0.91127082    -0.13300
C1394       C  0.52254136  0.19433560  0.90721491    -0.09000
C1395       C  0.55589614  0.22836107  0.90244215     0.06600
C1396       C  0.55551806  0.26366010  0.90155808    -0.14100
S1397       S  0.44886169  0.23562955  0.91666463    -0.31000
H1398       H  0.46443526  0.17142837  0.91482691     0.10800
S1399       S  0.60104829  0.22988680  0.89840607    -0.28100
H1400       H  0.58117674  0.28966453  0.89801684     0.08100
H1401       H  0.48633457  0.38585796  0.88511403     0.26500
H1402       H  0.42712267  0.19666923  0.92097691     0.21300
H1403       H  0.60050409  0.20817780  0.90910966     0.26600
H1404       H  0.56023497  0.29005306  0.92744688     0.15400
C1405       C  0.53596686  0.75131662  0.92989039    -0.11800
C1406       C  0.52580289  0.76621232  0.91937661     0.14700
C1407       C  0.51661046  0.74576521  0.90770374     0.01600
C1408       C  0.51776374  0.71093344  0.90686559    -0.16200
C1409       C  0.52760754  0.69568184  0.91739947    -0.11000
C1410       C  0.53704695  0.71632304  0.92904696     0.08300
C1411       C  0.52619568  0.80369043  0.92083911     0.09400
S1412       S  0.50244082  0.76160149  0.89353816    -0.25300
H1413       H  0.51033529  0.69523137  0.89791073     0.19600
S1414       S  0.55277141  0.69978248  0.94265668    -0.31000
H1415       H  0.54334912  0.76746001  0.93874603     0.09900
C1416       C  0.49154590  0.80482814  0.92295256     0.03100
C1417       C  0.49308029  0.84118758  0.92330926    -0.13300
C1418       C  0.52867515  0.87639529  0.92165056    -0.09000
C1419       C  0.56369748  0.87506227  0.92040377     0.06600
C1420       C  0.56200848  0.83878181  0.91987993    -0.14100
S1421       S  0.44533436  0.75992653  0.92479908    -0.31000
H1422       H  0.46624701  0.84212774  0.92430033     0.10800
S1423       S  0.61142280  0.91846908  0.91964043    -0.28100
H1424       H  0.58877322  0.83783450  0.91858511     0.08100
H1425       H  0.55859670  0.73019858  0.95096316     0.26500
H1426       H  0.42272735  0.77759765  0.92740693     0.21300
H1427       H  0.60168586  0.94169012  0.92724415     0.26600
H1428       H  0.51424471  0.80018646  0.89717168     0.15400
C1429       C  0.13357296  0.99399602  0.76537285    -0.11800
C1430       C  0.12190229  0.97448589  0.75366187     0.14700
C1431       C  0.14522268  0.99198532  0.74280996     0.01600
C1432       C  0.18018312  0.02780871  0.74398138    -0.16200
C1433       C  0.19298468  0.04634211  0.75584036    -0.11000
C1434       C  0.16863614  0.02963388  0.76658257     0.08300
C1435       C  0.08523182  0.93604443  0.75309060     0.09400
S1436       S  0.13261456  0.96938583  0.72732654    -0.25300
H1437       H  0.19834187  0.04045744  0.73564548     0.19600
S1438       S  0.17989888  0.05264706  0.78201013    -0.31000
H1439       H  0.11515798  0.98124060  0.77365423     0.09900
C1440       C  0.08174117  0.90314592  0.75955680     0.03100
C1441       C  0.04621400  0.86760830  0.75909517    -0.13300
C1442       C  0.01376956  0.86381269  0.75224480    -0.09000
C1443       C  0.01811374  0.89669746  0.74535630     0.06600
C1444       C  0.05342297  0.93241975  0.74603865    -0.14100
S1445       S  0.12274557  0.90609167  0.76822334    -0.31000
H1446       H  0.04369199  0.84254478  0.76417188     0.10800
S1447       S  0.97955345  0.89585309  0.73600098    -0.28100
H1448       H  0.05616348  0.95772175  0.74103260     0.08100
H1449       H  0.19753305  0.09127658  0.77735439     0.26500
H1450       H  0.10273990  0.86820368  0.77349082     0.21300
H1451       H  0.97822266  0.86749540  0.72757454     0.26600
H1452       H  0.11680025  0.93070145  0.73176666     0.15400
C1453       C  0.58530792  0.39926211  0.75530008    -0.11800
C1454       C  0.59169108  0.42415426  0.76564487     0.14700
C1455       C  0.56320157  0.41217030  0.77531101     0.01600
C1456       C  0.52857609  0.37601501  0.77428181    -0.16200
C1457       C  0.52192710  0.35132068  0.76384422    -0.11000
C1458       C  0.55100395  0.36285201  0.75436145     0.08300
C1459       C  0.62720306  0.46338232  0.76564586     0.09400
S1460       S  0.56920885  0.44193103  0.78906365    -0.25300
H1461       H  0.50638222  0.36733711  0.78158104     0.19600
S1462       S  0.54647300  0.33231228  0.74096720    -0.31000
H1463       H  0.60720698  0.40838441  0.74788285     0.09900
C1464       C  0.66447831  0.46841718  0.76821267     0.03100
C1465       C  0.69750308  0.50604675  0.76752670    -0.13300
C1466       C  0.69396027  0.53870859  0.76425152    -0.09000
C1467       C  0.65634429  0.53367371  0.76207115     0.06600
C1468       C  0.62340871  0.49601515  0.76275643    -0.14100
S1469       S  0.66992545  0.42697071  0.77241861    -0.31000
H1470       H  0.72631640  0.50992838  0.76922252     0.10800
S1471       S  0.64965460  0.57509168  0.75906927    -0.28100
H1472       H  0.59447927  0.49178485  0.76102705     0.08100
H1473       H  0.52460414  0.29643358  0.74737521     0.26500
H1474       H  0.70979676  0.44871950  0.77571296     0.21300
H1475       H  0.60961587  0.55344573  0.75596752     0.26600
H1476       H  0.61011394  0.45890576  0.78986124     0.15400
C1477       C  0.81239478  0.89606776  0.75058927    -0.11800
C1478       C  0.84839579  0.93052937  0.74868100     0.14700
C1479       C  0.88252656  0.92790171  0.74705368     0.01600
C1480       C  0.88018056  0.89131366  0.74784845    -0.16200
C1481       C  0.84448910  0.85689727  0.75024163    -0.11000
C1482       C  0.81001737  0.85935988  0.75130891     0.08300
C1483       C  0.85020611  0.96895529  0.74976281     0.09400
S1484       S  0.93025306  0.97027532  0.74450329    -0.25300
H1485       H  0.90679167  0.88989224  0.74703251     0.19600
S1486       S  0.76222098  0.81691943  0.75352017    -0.31000
H1487       H  0.78607300  0.89789522  0.75177718     0.09900
C1488       C  0.84001878  0.98547231  0.73960587     0.03100
C1489       C  0.84291458  0.02231064  0.74114691    -0.13300
C1490       C  0.85589714  0.04299751  0.75265803    -0.09000
C1491       C  0.86718200  0.02668904  0.76267390     0.06600
C1492       C  0.86364394  0.98978169  0.76117579    -0.14100
S1493       S  0.82382145  0.95985385  0.72466056    -0.31000
H1494       H  0.83435054  0.03471609  0.73345701     0.10800
S1495       S  0.88822795  0.05219847  0.77737178    -0.28100
H1496       H  0.87222793  0.97745883  0.76890124     0.08100
H1497       H  0.76978517  0.79149414  0.74625359     0.26500
H1498       H  0.82453658  0.99087971  0.71781050     0.21300
H1499       H  0.90830188  0.08980354  0.77190324     0.26600
H1500       H  0.91719689  0.99368388  0.73862488     0.15400
C1501       C  0.89434910  0.51117930  0.76425121    -0.11800
C1502       C  0.86027387  0.47630531  0.76751816     0.14700
C1503       C  0.82608614  0.47753351  0.77063435     0.01600
C1504       C  0.82677587  0.51349336  0.77034081    -0.16200
C1505       C  0.86057629  0.54833473  0.76665079    -0.11000
C1506       C  0.89495367  0.54695162  0.76376167     0.08300
C1507       C  0.86142067  0.43925222  0.76703651     0.09400
S1508       S  0.78036222  0.43427609  0.77461526    -0.25300
H1509       H  0.80009600  0.51391143  0.77243569     0.19600
S1510       S  0.94076353  0.58959657  0.75948539    -0.31000
H1511       H  0.92071048  0.51039742  0.76192422     0.09900
C1512       C  0.86308856  0.42305397  0.75529124     0.03100
C1513       C  0.86647432  0.38932945  0.75505484    -0.13300
C1514       C  0.86801230  0.37096909  0.76632500    -0.09000
C1515       C  0.86663316  0.38751821  0.77813814     0.06600
C1516       C  0.86290908  0.42115669  0.77835067    -0.14100
S1517       S  0.85985834  0.44482506  0.74054820    -0.31000
H1518       H  0.86716469  0.37670350  0.74599269     0.10800
S1519       S  0.87162096  0.36859901  0.79320744    -0.28100
H1520       H  0.86221581  0.43394984  0.78738992     0.08100
H1521       H  0.93643306  0.61512891  0.76778724     0.26500
H1522       H  0.85885116  0.41604614  0.73240449     0.21300
H1523       H  0.89827336  0.35739477  0.78882963     0.26600
H1524       H  0.78632355  0.40746560  0.76755815     0.15400
C1525       C  0.68952638  0.61525062  0.81882064    -0.11800
C1526       C  0.70077009  0.64167366  0.82899005     0.14700
C1527       C  0.73470902  0.67903305  0.82784514     0.01600
C1528       C  0.75653513  0.68894402  0.81657330    -0.16200
C1529       C  0.74588426  0.66196599  0.80654731    -0.11000
C1530       C  0.71139795  0.62505590  0.80761040     0.08300
C1531       C  0.67670256  0.62863366  0.84067916     0.09400
S1532       S  0.75227400  0.71493177  0.84044753    -0.25300
H1533       H  0.78287575  0.71737293  0.81580698     0.19600
S1534       S  0.69306663  0.58961494  0.79488977    -0.31000
H1535       H  0.66325542  0.58677188  0.81960659     0.09900
C1536       C  0.65121917  0.64250255  0.84399296     0.03100
C1537       C  0.62820579  0.62811768  0.85500601    -0.13300
C1538       C  0.62993230  0.59986786  0.86276626    -0.09000
C1539       C  0.65637842  0.58682641  0.85946669     0.06600
C1540       C  0.67872570  0.60074073  0.84838983    -0.14100
S1541       S  0.64696816  0.67736152  0.83393930    -0.31000
H1542       H  0.60816217  0.63832433  0.85743128     0.10800
S1543       S  0.66487294  0.55427062  0.86926658    -0.28100
H1544       H  0.69858430  0.59032902  0.84587247     0.08100
H1545       H  0.70603148  0.61733660  0.78499479     0.26500
H1546       H  0.61742692  0.67884888  0.84095900     0.21300
H1547       H  0.66564758  0.57329489  0.88066467     0.26600
H1548       H  0.73686745  0.68827858  0.85059549     0.15400
C1549       C  0.60148930  0.03395636  0.98730589    -0.11800
C1550       C  0.56854793  0.01912870  0.99523592     0.14700
C1551       C  0.53084644  0.99671937  0.98984271     0.01600
C1552       C  0.52673154  0.99267070  0.97665670    -0.16200
C1553       C  0.55953957  0.00940075  0.96863354    -0.11000
C1554       C  0.59739696  0.02837667  0.97413086     0.08300
C1555       C  0.57375820  0.03001115  0.00888227     0.09400
S1556       S  0.48676418  0.97348783  0.99926592    -0.25300
H1557       H  0.49751671  0.97761503  0.97263575     0.19600
S1558       S  0.64143771  0.04560740  0.96487645    -0.31000
H1559       H  0.63055470  0.05049916  0.99138446     0.09900
C1560       C  0.59306685  0.01763698  0.01734606     0.03100
C1561       C  0.59392719  0.02592404  0.03033584    -0.13300
C1562       C  0.57583193  0.04629709  0.03512701    -0.09000
C1563       C  0.55768991  0.05989932  0.02649728     0.06600
C1564       C  0.55739434  0.05200521  0.01349677    -0.14100
S1565       S  0.61444879  0.98914997  0.01180269    -0.31000
H1566       H  0.60777778  0.01536359  0.03687633     0.10800
S1567       S  0.53144391  0.08388159  0.03183103    -0.28100
H1568       H  0.54288148  0.06158566  0.00686726     0.08100
H1569       H  0.62411940  0.01585354  0.95564832     0.26500
H1570       H  0.63237873  0.98888096  0.02333563     0.21300
H1571       H  0.52207262  0.09231461  0.01977417     0.26600
H1572       H  0.50401784  0.96622835  0.00984985     0.15400
C1573       C  0.39143782  0.00865666  0.15693977    -0.11800
C1574       C  0.39207105  0.98157254  0.16541009     0.14700
C1575       C  0.41539037  0.96469203  0.16257909     0.01600
C1576       C  0.43685444  0.97465159  0.15125270    -0.16200
C1577       C  0.43593930  0.00145354  0.14259766    -0.11000
C1578       C  0.41254917  0.01840072  0.14556062     0.08300
C1579       C  0.36470678  0.96818197  0.17631919     0.09400
S1580       S  0.41870555  0.93004947  0.17299222    -0.25300
H1581       H  0.45467980  0.96148724  0.14924860     0.19600
S1582       S  0.40549032  0.05005638  0.13487958    -0.31000
H1583       H  0.37281202  0.02093162  0.15894302     0.09900
C1584       C  0.36935096  0.99299671  0.18662206     0.03100
C1585       C  0.34267429  0.97838176  0.19676841    -0.13300
C1586       C  0.31102517  0.93965932  0.19670577    -0.09000
C1587       C  0.30536390  0.91576165  0.18597681     0.06600
C1588       C  0.33255606  0.92999682  0.17606725    -0.14100
S1589       S  0.40982239  0.04279589  0.18702166    -0.31000
H1590       H  0.34697625  0.99686184  0.20492387     0.10800
S1591       S  0.26305193  0.86778390  0.18394470    -0.28100
H1592       H  0.32821835  0.91139173  0.16792812     0.08100
H1593       H  0.39993417  0.02650736  0.12414749     0.26500
H1594       H  0.40032390  0.05326258  0.19870374     0.21300
H1595       H  0.23710815  0.87645289  0.19040552     0.26600
H1596       H  0.41222796  0.94470557  0.18435157     0.15400
C1597       C  0.47121890  0.46451255  0.98773656    -0.11800
C1598       C  0.48617188  0.49903521  0.99488927     0.14700
C1599       C  0.49554604  0.53447687  0.98871091     0.01600
C1600       C  0.49222758  0.53509110  0.97548325    -0.16200
C1601       C  0.47828895  0.50072497  0.96817534    -0.11000
C1602       C  0.46607703  0.46470114  0.97458497     0.08300
C1603       C  0.49284961  0.49746683  0.00868629     0.09400
S1604       S  0.51200383  0.57989987  0.99717409    -0.25300
H1605       H  0.50142983  0.56295538  0.97087021     0.19600
S1606       S  0.44254523  0.41772616  0.96674984    -0.31000
H1607       H  0.46322717  0.43707466  0.99247432     0.09900
C1608       C  0.46152042  0.47651943  0.01716531     0.03100
C1609       C  0.46921978  0.47698139  0.03019010    -0.13300
C1610       C  0.50754494  0.49871282  0.03500986    -0.09000
C1611       C  0.53882448  0.52002236  0.02644086     0.06600
C1612       C  0.53122818  0.51828343  0.01340244    -0.14100
S1613       S  0.41150239  0.45147321  0.01154796    -0.31000
H1614       H  0.44509422  0.46126453  0.03672242     0.10800
S1615       S  0.58838325  0.55294195  0.03148910    -0.28100
H1616       H  0.55528715  0.53475511  0.00689479     0.08100
H1617       H  0.42081380  0.42748063  0.95841882     0.26500
H1618       H  0.39394791  0.43369887  0.02315999     0.21300
H1619       H  0.57752723  0.56873792  0.04162184     0.26600
H1620       H  0.49019184  0.56266667  0.00825871     0.15400
C1621       C  0.51070884  0.81451485  0.10728606    -0.11800
C1622       C  0.54036416  0.81196971  0.10083843     0.14700
C1623       C  0.56820616  0.84446558  0.09378155     0.01600
C1624       C  0.56496501  0.87812733  0.09293486    -0.16200
C1625       C  0.53476770  0.88073221  0.09914144    -0.11000
C1626       C  0.50774519  0.84841398  0.10663346     0.08300
C1627       C  0.53874795  0.77367399  0.10031691     0.09400
S1628       S  0.60808658  0.84447350  0.08540281    -0.25300
H1629       H  0.58640555  0.90255998  0.08733529     0.19600
S1630       S  0.46721453  0.84707931  0.11489419    -0.31000
H1631       H  0.48896496  0.78938690  0.11257380     0.09900
C1632       C  0.54633472  0.75696074  0.11102106     0.03100
C1633       C  0.54530117  0.72094550  0.10975831    -0.13300
C1634       C  0.53691272  0.70151633  0.09798645    -0.09000
C1635       C  0.52748022  0.71760961  0.08747318     0.06600
C1636       C  0.52889762  0.75353052  0.08872969    -0.14100
S1637       S  0.55948243  0.78245562  0.12605472    -0.31000
H1638       H  0.55246689  0.70860977  0.11782214     0.10800
S1639       S  0.51225004  0.69341211  0.07228252    -0.28100
H1640       H  0.52202990  0.76590029  0.08059364     0.08100
H1641       H  0.49182375  0.87429010  0.12405741     0.26500
H1642       H  0.55695008  0.75121310  0.13328168     0.21300
H1643       H  0.49296208  0.65507688  0.07720091     0.26600
H1644       H  0.61164403  0.81821729  0.09359208     0.15400
C1645       C  0.56743854  0.34073577  0.07823538    -0.11800
C1646       C  0.53612299  0.30788126  0.08401650     0.14700
C1647       C  0.50610159  0.31177884  0.08985774     0.01600
C1648       C  0.50832759  0.34825015  0.08999447    -0.16200
C1649       C  0.54007023  0.38160552  0.08451650    -0.11000
C1650       C  0.57009522  0.37759166  0.07857384     0.08300
C1651       C  0.53742250  0.27102372  0.08498094     0.09400
S1652       S  0.46456309  0.27157757  0.09758257    -0.25300
H1653       H  0.48494460  0.35057236  0.09454775     0.19600
S1654       S  0.61402923  0.41850776  0.07224672    -0.31000
H1655       H  0.59097429  0.33802452  0.07397993     0.09900
C1656       C  0.53245167  0.24746770  0.07429981     0.03100
C1657       C  0.53320371  0.21243099  0.07583626    -0.13300
C1658       C  0.53853852  0.20025423  0.08788078    -0.09000
C1659       C  0.54398077  0.22438481  0.09856865     0.06600
C1660       C  0.54348591  0.25943253  0.09695081    -0.14100
S1661       S  0.52395653  0.26146598  0.05879716    -0.31000
H1662       H  0.52885374  0.19403948  0.06765458     0.10800
S1663       S  0.55356241  0.21228561  0.11425332    -0.28100
H1664       H  0.54796152  0.27818028  0.10504693     0.08100
H1665       H  0.61931117  0.44360110  0.08250219     0.26500
H1666       H  0.51886706  0.22810779  0.05225834     0.21300
H1667       H  0.55052056  0.24155286  0.12093392     0.26600
H1668       H  0.46291714  0.24199085  0.08970482     0.15400
C1669       C  0.92147380  0.87129429  0.24207844    -0.11800
C1670       C  0.93362027  0.86520890  0.25396390     0.14700
C1671       C  0.91084768  0.86141153  0.26480701     0.01600
C1672       C  0.87605795  0.86260751  0.26342714    -0.16200
C1673       C  0.86297567  0.86691789  0.25141449    -0.11000
C1674       C  0.88691277  0.87260899  0.24069101     0.08300
C1675       C  0.97075709  0.86421027  0.25457111     0.09400
S1676       S  0.92386727  0.85393042  0.28057503    -0.25300
H1677       H  0.85841512  0.85886674  0.27176439     0.19600
S1678       S  0.87646162  0.88383677  0.22506608    -0.31000
H1679       H  0.93949201  0.87559950  0.23379007     0.09900
C1680       C  0.97464138  0.83479890  0.24826949     0.03100
C1681       C  0.01132055  0.83720383  0.24780732    -0.13300
C1682       C  0.04452408  0.86805501  0.25372653    -0.09000
C1683       C  0.03978809  0.89639853  0.26063032     0.06600
C1684       C  0.00332630  0.89447343  0.26077475    -0.14100
S1685       S  0.93264287  0.79375521  0.24094969    -0.31000
H1686       H  0.01407783  0.81477649  0.24276870     0.10800
S1687       S  0.07911049  0.93688565  0.26894914    -0.28100
H1688       H  0.00041335  0.91712169  0.26563289     0.08100
H1689       H  0.86032332  0.90642975  0.22938573     0.26500
H1690       H  0.95238863  0.77516360  0.23609586     0.21300
H1691       H  0.08364491  0.91226597  0.27763712     0.26600
H1692       H  0.94348564  0.83408632  0.27681183     0.15400
C1693       C  0.47738951  0.83963428  0.23766951    -0.11800
C1694       C  0.47929665  0.87600139  0.23880592     0.14700
C1695       C  0.51601848  0.91034943  0.24033272     0.01600
C1696       C  0.54991793  0.90747228  0.24084371    -0.16200
C1697       C  0.54809201  0.87103350  0.23996372    -0.11000
C1698       C  0.51123628  0.83667706  0.23838323     0.08300
C1699       C  0.44226462  0.87659782  0.23961142     0.09400
S1700       S  0.52166088  0.95838808  0.24249781    -0.25300
H1701       H  0.57800965  0.93392698  0.24210870     0.19600
S1702       S  0.50500593  0.78806879  0.23819258    -0.31000
H1703       H  0.44911037  0.81318173  0.23675806     0.09900
C1704       C  0.42492915  0.88275088  0.22881798     0.03100
C1705       C  0.38981190  0.88332305  0.23013803    -0.13300
C1706       C  0.37168331  0.87771625  0.24205721    -0.09000
C1707       C  0.38894238  0.87066569  0.25280512     0.06600
C1708       C  0.42416193  0.87064610  0.25147230    -0.14100
S1709       S  0.44834417  0.89112487  0.21349277    -0.31000
H1710       H  0.37674997  0.88881986  0.22191183     0.10800
S1711       S  0.36688763  0.85972608  0.26836409    -0.28100
H1712       H  0.43737708  0.86541942  0.25972824     0.08100
H1713       H  0.53295004  0.79556814  0.24772086     0.26500
H1714       H  0.42086461  0.89685488  0.20671129     0.21300
H1715       H  0.32810970  0.83813345  0.26394436     0.26600
H1716       H  0.48676087  0.95128004  0.23664884     0.15400
C1717       C  0.63033549  0.74364231  0.17623526    -0.11800
C1718       C  0.63593318  0.71125090  0.17622035     0.14700
C1719       C  0.65575409  0.70572441  0.18647281     0.01600
C1720       C  0.66847999  0.73203281  0.19667584    -0.16200
C1721       C  0.66194634  0.76394341  0.19689354    -0.11000
C1722       C  0.64379014  0.77040255  0.18629204     0.08300
C1723       C  0.62332504  0.68560343  0.16491335     0.09400
S1724       S  0.66561669  0.66574646  0.18712287    -0.25300
H1725       H  0.68263849  0.72687956  0.20467722     0.19600
S1726       S  0.63946664  0.81352827  0.18453885    -0.31000
H1727       H  0.61641426  0.74873020  0.16814661     0.09900
C1728       C  0.58361974  0.65819119  0.16266248     0.03100
C1729       C  0.57292781  0.63592634  0.15145058    -0.13300
C1730       C  0.60119358  0.64039602  0.14241411    -0.09000
C1731       C  0.64114888  0.66771653  0.14491177     0.06600
C1732       C  0.65162200  0.68999101  0.15605274    -0.14100
S1733       S  0.54668241  0.65149483  0.17411190    -0.31000
H1734       H  0.54235641  0.61496955  0.14970988     0.10800
S1735       S  0.67999317  0.67764537  0.13395277    -0.28100
H1736       H  0.68212908  0.71139101  0.15777059     0.08100
H1737       H  0.67541355  0.83878477  0.19050802     0.26500
H1738       H  0.51479337  0.62026449  0.16785344     0.21300
H1739       H  0.67794692  0.64160811  0.13650519     0.26600
H1740       H  0.63274469  0.63902108  0.18005309     0.15400
C1741       C  0.23640810  0.10687125  0.24927187    -0.11800
C1742       C  0.20080600  0.10420645  0.25269090     0.14700
C1743       C  0.16856356  0.06722607  0.25578088     0.01600
C1744       C  0.17236702  0.03377284  0.25511568    -0.16200
C1745       C  0.20769828  0.03611584  0.25140831    -0.11000
C1746       C  0.24036633  0.07346459  0.24872999     0.08300
C1747       C  0.19782571  0.14024803  0.25229738     0.09400
S1748       S  0.12137254  0.06057247  0.26007285    -0.25300
H1749       H  0.14712097  0.00545320  0.25717711     0.19600
S1750       S  0.28812335  0.08083118  0.24491780    -0.31000
H1751       H  0.26133400  0.13528028  0.24699363     0.09900
C1752       C  0.20939806  0.16631954  0.26266985     0.03100
C1753       C  0.20793544  0.20113154  0.26161695    -0.13300
C1754       C  0.19534855  0.21053540  0.25034053    -0.09000
C1755       C  0.18243194  0.18350299  0.24012079     0.06600
C1756       C  0.18421289  0.14899879  0.24117159    -0.14100
S1757       S  0.22573806  0.15500380  0.27726137    -0.31000
H1758       H  0.21745251  0.22153539  0.26949413     0.10800
S1759       S  0.16232989  0.19064341  0.22562844    -0.28100
H1760       H  0.17481395  0.12869124  0.23325498     0.08100
H1761       H  0.28502523  0.05024428  0.25263370     0.26500
H1762       H  0.23793181  0.19120319  0.28326835     0.21300
H1763       H  0.14443154  0.20987895  0.23139485     0.26600
H1764       H  0.13563308  0.09692599  0.26617020     0.15400
C1765       C  0.22376174  0.67008992  0.25030352    -0.11800
C1766       C  0.20818930  0.64744728  0.23932042     0.14700
C1767       C  0.19587257  0.66216923  0.22916874     0.01600
C1768       C  0.19853176  0.69884859  0.23038590    -0.16200
C1769       C  0.21363008  0.72127184  0.24148564    -0.11000
C1770       C  0.22723877  0.70698905  0.25140241     0.08300
C1771       C  0.20461818  0.60833970  0.23898132     0.09400
S1772       S  0.17617335  0.63547043  0.21455705    -0.25300
H1773       H  0.18827191  0.70973682  0.22270090     0.19600
S1774       S  0.25079011  0.73504050  0.26546419    -0.31000
H1775       H  0.23369259  0.65902965  0.25803503     0.09900
C1776       C  0.23783278  0.60418273  0.23755255     0.03100
C1777       C  0.23350575  0.56669360  0.23796871    -0.13300
C1778       C  0.19675609  0.53330668  0.24010668    -0.09000
C1779       C  0.16344128  0.53763268  0.24143920     0.06600
C1780       C  0.16776279  0.57507132  0.24086675    -0.14100
S1781       S  0.28577640  0.64666050  0.23530851    -0.31000
H1782       H  0.25905428  0.56343618  0.23699593     0.10800
S1783       S  0.11469931  0.49672420  0.24368756    -0.28100
H1784       H  0.14227853  0.57839312  0.24200879     0.08100
H1785       H  0.26947776  0.77151943  0.25924034     0.26500
H1786       H  0.30696557  0.62672581  0.23587794     0.21300
H1787       H  0.11978879  0.47136638  0.23553883     0.26600
H1788       H  0.19670990  0.61487157  0.21483101     0.15400
C1789       C  0.92917554  0.07252616  0.24025984    -0.11800
C1790       C  0.93878615  0.09641966  0.25105088     0.14700
C1791       C  0.91364056  0.08309272  0.26169016     0.01600
C1792       C  0.87836536  0.04728606  0.26104064    -0.16200
C1793       C  0.86795724  0.02400639  0.25005148    -0.11000
C1794       C  0.89457938  0.03617440  0.23975570     0.08300
C1795       C  0.97448730  0.13563188  0.25075217     0.09400
S1796       S  0.92455736  0.11086454  0.27622247    -0.25300
H1797       H  0.85854703  0.03791410  0.26907497     0.19600
S1798       S  0.88692551  0.00609167  0.22593454    -0.31000
H1799       H  0.94891270  0.08222338  0.23219951     0.09900
C1800       C  0.01175162  0.14060265  0.25330625     0.03100
C1801       C  0.04478475  0.17837502  0.25293531    -0.13300
C1802       C  0.04133618  0.21127328  0.24989600    -0.09000
C1803       C  0.00373335  0.20611494  0.24753972     0.06600
C1804       C  0.97085687  0.16840707  0.24789266    -0.14100
S1805       S  0.01703214  0.09880203  0.25713287    -0.31000
H1806       H  0.07354435  0.18224909  0.25474221     0.10800
S1807       S  0.99553441  0.24647596  0.24453695    -0.28100
H1808       H  0.94210398  0.16457456  0.24606091     0.08100
H1809       H  0.86598146  0.97006541  0.23232436     0.26500
H1810       H  0.05787889  0.11966211  0.25889070     0.21300
H1811       H  0.02511689  0.27276854  0.25280438     0.26600
H1812       H  0.96548361  0.12847792  0.27538319     0.15400
C1813       C  0.42844057  0.56475712  0.24210021    -0.11800
C1814       C  0.42940159  0.59990192  0.23917520     0.14700
C1815       C  0.39441671  0.59917706  0.23573764     0.01600
C1816       C  0.35906741  0.56341013  0.23579886    -0.16200
C1817       C  0.35782160  0.52838119  0.23928694    -0.11000
C1818       C  0.39326882  0.52903497  0.24200564     0.08300
C1819       C  0.46738148  0.63663129  0.24008332     0.09400
S1820       S  0.39237468  0.64248009  0.23138260    -0.25300
H1821       H  0.33211570  0.56319257  0.23358788     0.19600
S1822       S  0.39588190  0.48533873  0.24505920    -0.31000
H1823       H  0.45541990  0.56521750  0.24446420     0.09900
C1824       C  0.48163830  0.65521276  0.25188194     0.03100
C1825       C  0.51830321  0.68947593  0.25248245    -0.13300
C1826       C  0.54124342  0.70538617  0.24152628    -0.09000
C1827       C  0.52702495  0.68612950  0.22972102     0.06600
C1828       C  0.49009553  0.65223905  0.22912222    -0.14100
S1829       S  0.45281743  0.63547565  0.26613827    -0.31000
H1830       H  0.52897193  0.70427884  0.26150362     0.10800
S1831       S  0.55511948  0.70204145  0.21522291    -0.28100
H1832       H  0.47928722  0.63742089  0.22009950     0.08100
H1833       H  0.36504719  0.46111795  0.23680583     0.26500
H1834       H  0.48074758  0.66256296  0.27466243     0.21300
H1835       H  0.59156601  0.71435287  0.22105827     0.26600
H1836       H  0.42859218  0.67094949  0.23636198     0.15400
C1837       C  0.06855387  0.61397233  0.98945829    -0.11800
C1838       C  0.03256656  0.60530184  0.99481138     0.14700
C1839       C  0.00167523  0.59960869  0.98673423     0.01600
C1840       C  0.00600347  0.59859634  0.97356911    -0.16200
C1841       C  0.04094718  0.60384252  0.96806266    -0.11000
C1842       C  0.07344956  0.61433473  0.97623303     0.08300
C1843       C  0.02661161  0.59762861  0.00866272     0.09400
S1844       S  0.95499994  0.59062955  0.99266701    -0.25300
H1845       H  0.98087736  0.59174721  0.96766050     0.19600
S1846       S  0.12181863  0.62836210  0.97058626    -0.31000
H1847       H  0.09274669  0.61946375  0.99565448     0.09900
C1848       C  0.00876978  0.55899667  0.01338123     0.03100
C1849       C  0.00493444  0.55249951  0.02653915    -0.13300
C1850       C  0.01872674  0.58385803  0.03517492    -0.09000
C1851       C  0.03495945  0.62252920  0.03035141     0.06600
C1852       C  0.03921350  0.62899447  0.01718723    -0.14100
S1853       S  0.99244764  0.51798829  0.00262178    -0.31000
H1854       H  0.99277436  0.52290344  0.03012471     0.10800
S1855       S  0.05011667  0.66472593  0.04042548    -0.28100
H1856       H  0.05220001  0.65864016  0.01354542     0.08100
H1857       H  0.12045174  0.65113513  0.96049943     0.26500
H1858       H  0.97809283  0.48837461  0.01192347     0.21300
H1859       H  0.02112297  0.64467954  0.04969513     0.26600
H1860       H  0.96906173  0.61087005  0.00420165     0.15400
C1861       C  0.27153552  0.57337748  0.09945114    -0.11800
C1862       C  0.27315486  0.53942692  0.09673668     0.14700
C1863       C  0.23847624  0.50450125  0.09350685     0.01600
C1864       C  0.20321650  0.50462749  0.09270742    -0.16200
C1865       C  0.20153580  0.53869493  0.09521794    -0.11000
C1866       C  0.23615246  0.57338487  0.09876666     0.08300
C1867       C  0.31178931  0.54210537  0.09642746     0.09400
S1868       S  0.23731835  0.45921311  0.08980098    -0.25300
H1869       H  0.17678219  0.47782227  0.09008824     0.19600
S1870       S  0.23769188  0.61930274  0.10131593    -0.31000
H1871       H  0.29823087  0.60032286  0.10176328     0.09900
C1872       C  0.33010019  0.54370149  0.08481616     0.03100
C1873       C  0.36586316  0.54427641  0.08486510    -0.13300
C1874       C  0.38405711  0.54368875  0.09631952    -0.09000
C1875       C  0.36571695  0.54269435  0.10798832     0.06600
C1876       C  0.32989888  0.54220944  0.10788586    -0.14100
S1877       S  0.30801067  0.54545645  0.06994943    -0.31000
H1878       H  0.37989931  0.54549241  0.07591038     0.10800
S1879       S  0.38579061  0.53907864  0.12302644    -0.28100
H1880       H  0.31523839  0.54075546  0.11673131     0.08100
H1881       H  0.21603019  0.60651798  0.11265874     0.26500
H1882       H  0.33765356  0.54780221  0.06195719     0.21300
H1883       H  0.35911852  0.54300480  0.13086992     0.26600
H1884       H  0.27080178  0.46669300  0.09673401     0.15400
C1885       C  0.75578264  0.53685285  0.09627974    -0.11800
C1886       C  0.77360667  0.54376251  0.08429999     0.14700
C1887       C  0.75432405  0.54828684  0.07367969     0.01600
C1888       C  0.71790760  0.54588783  0.07527810    -0.16200
C1889       C  0.70046982  0.54004700  0.08733680    -0.11000
C1890       C  0.71952577  0.53464520  0.09790759     0.08300
C1891       C  0.81154567  0.54457180  0.08325515     0.09400
S1892       S  0.77519337  0.55850915  0.05794563    -0.25300
H1893       H  0.70375160  0.55006297  0.06707759     0.19600
S1894       S  0.69846181  0.52291606  0.11359940    -0.31000
H1895       H  0.77003407  0.53249158  0.10442128     0.09900
C1896       C  0.84563523  0.57427498  0.08912845     0.03100
C1897       C  0.87978759  0.57163861  0.08919631    -0.13300
C1898       C  0.88119229  0.54037442  0.08322966    -0.09000
C1899       C  0.84752759  0.51208278  0.07657634     0.06600
C1900       C  0.81305160  0.51412821  0.07686907    -0.14100
S1901       S  0.84579638  0.61590109  0.09639262    -0.31000
H1902       H  0.90559933  0.59409714  0.09399661     0.10800
S1903       S  0.84571616  0.47145653  0.06817750    -0.28100
H1904       H  0.78694680  0.49145161  0.07223179     0.08100
H1905       H  0.65995626  0.49796396  0.10930675     0.26500
H1906       H  0.88557864  0.63615989  0.09987387     0.21300
H1907       H  0.87445625  0.49589333  0.05936103     0.26600
H1908       H  0.81455761  0.57912700  0.06186015     0.15400
C1909       C  0.26274197  0.73941788  0.08768809    -0.11800
C1910       C  0.26955794  0.76237381  0.09859846     0.14700
C1911       C  0.24134875  0.74845897  0.10840946     0.01600
C1912       C  0.20679061  0.71239058  0.10698864    -0.16200
C1913       C  0.19964128  0.68983889  0.09596019    -0.11000
C1914       C  0.22833625  0.70329336  0.08629210     0.08300
C1915       C  0.30519200  0.80165098  0.09899847     0.09400
S1916       S  0.24735788  0.77555818  0.12283281    -0.25300
H1917       H  0.18491245  0.70220586  0.11443940     0.19600
S1918       S  0.22315721  0.67576661  0.07202627    -0.31000
H1919       H  0.28432676  0.74995593  0.08014224     0.09900
C1920       C  0.34281989  0.80611718  0.10002838     0.03100
C1921       C  0.37585324  0.84375882  0.09942763    -0.13300
C1922       C  0.37214953  0.87711519  0.09777773    -0.09000
C1923       C  0.33435028  0.87261930  0.09693813     0.06600
C1924       C  0.30130105  0.83490639  0.09753467    -0.14100
S1925       S  0.34878590  0.76395136  0.10227082    -0.31000
H1926       H  0.40478468  0.84723143  0.09997706     0.10800
S1927       S  0.32783874  0.91470215  0.09554345    -0.28100
H1928       H  0.27223651  0.83109695  0.09670650     0.08100
H1929       H  0.20186505  0.63861787  0.07770047     0.26500
H1930       H  0.38968130  0.78372772  0.10070252     0.21300
H1931       H  0.28668667  0.89415000  0.09613340     0.26600
H1932       H  0.28843106  0.79396056  0.12322294     0.15400
C1933       C  0.83903382  0.30560703  0.08169930    -0.11800
C1934       C  0.80466449  0.30790865  0.08201539     0.14700
C1935       C  0.80771584  0.34517421  0.08263673     0.01600
C1936       C  0.84473255  0.37893127  0.08342961    -0.16200
C1937       C  0.87906609  0.37660212  0.08338039    -0.11000
C1938       C  0.87608707  0.33949498  0.08213608     0.08300
C1939       C  0.76630797  0.27094964  0.08267527     0.09400
S1940       S  0.76560772  0.35168730  0.08260933    -0.25300
H1941       H  0.84675356  0.40728030  0.08429645     0.19600
S1942       S  0.91837078  0.33362985  0.08061111    -0.31000
H1943       H  0.83693602  0.27715685  0.08111643     0.09900
C1944       C  0.75000948  0.24588940  0.07210278     0.03100
C1945       C  0.71441721  0.21032021  0.07345925    -0.13300
C1946       C  0.69474489  0.19937697  0.08519876    -0.09000
C1947       C  0.71032950  0.22575401  0.09555295     0.06600
C1948       C  0.74606859  0.26067907  0.09424123    -0.14100
S1949       S  0.77427728  0.25960724  0.05687501    -0.31000
H1950       H  0.70222452  0.19065113  0.06543209     0.10800
S1951       S  0.68521570  0.21764999  0.11052345    -0.28100
H1952       H  0.75808690  0.28032688  0.10229603     0.08100
H1953       H  0.94121132  0.36879305  0.07390474     0.26500
H1954       H  0.74636874  0.22641249  0.05016327     0.21300
H1955       H  0.64733824  0.19956424  0.10524725     0.26600
H1956       H  0.74065075  0.31733739  0.07582886     0.15400
C1957       C  0.12874383  0.46258940  0.15133398    -0.11800
C1958       C  0.10000335  0.44287580  0.16064480     0.14700
C1959       C  0.06128390  0.43452191  0.15828248     0.01600
C1960       C  0.05232295  0.44609134  0.14674724    -0.16200
C1961       C  0.08132214  0.46688448  0.13757173    -0.11000
C1962       C  0.11986301  0.47440834  0.13984097     0.08300
C1963       C  0.11176904  0.43237048  0.17277933     0.09400
S1964       S  0.02217412  0.41017220  0.16966915    -0.25300
H1965       H  0.02272354  0.44023914  0.14515278     0.19600
S1966       S  0.15879931  0.49804301  0.12836809    -0.31000
H1967       H  0.15837702  0.46867248  0.15302731     0.09900
C1968       C  0.10115207  0.39340800  0.17576538     0.03100
C1969       C  0.11351668  0.38525295  0.18733003    -0.13300
C1970       C  0.13650687  0.41526431  0.19601541    -0.09000
C1971       C  0.14616343  0.45423006  0.19307112     0.06600
C1972       C  0.13427992  0.46232154  0.18145606    -0.14100
S1973       S  0.07310126  0.35427095  0.16464749    -0.31000
H1974       H  0.10608949  0.35543838  0.18947285     0.10800
S1975       S  0.17178013  0.49469781  0.20391756    -0.28100
H1976       H  0.14196168  0.49221363  0.17925669     0.08100
H1977       H  0.13464327  0.48129346  0.11766929     0.26500
H1978       H  0.06931946  0.32342312  0.17237616     0.21300
H1979       H  0.15280530  0.47268088  0.21481152     0.26600
H1980       H  0.04567699  0.42309705  0.18062465     0.15400
C1981       C  0.86441868  0.69928406  0.65588699    -0.11800
C1982       C  0.89744926  0.70038248  0.66127267     0.14700
C1983       C  0.92565256  0.69945613  0.65320862     0.01600
C1984       C  0.92047559  0.69840060  0.63995561    -0.16200
C1985       C  0.88726248  0.69726996  0.63461378    -0.11000
C1986       C  0.85931825  0.69829564  0.64273069     0.08300
C1987       C  0.90110209  0.70317825  0.67531833     0.09400
S1988       S  0.96865382  0.69955835  0.65914061    -0.25300
H1989       H  0.94223824  0.69802687  0.63377714     0.19600
S1990       S  0.81761579  0.70071579  0.63686214    -0.31000
H1991       H  0.84289846  0.70034597  0.66201435     0.09900
C1992       C  0.92450944  0.73929779  0.68153936     0.03100
C1993       C  0.92265841  0.74143030  0.69485221    -0.13300
C1994       C  0.89770586  0.70812808  0.70207330    -0.09000
C1995       C  0.87423658  0.67198438  0.69570996     0.06600
C1996       C  0.87667027  0.66986718  0.68251048    -0.14100
S1997       S  0.95582521  0.78285004  0.67247665    -0.31000
H1998       H  0.94053705  0.76911202  0.69965745     0.10800
S1999       S  0.83782162  0.62824840  0.70364141    -0.28100
H2000       H  0.85791614  0.64233343  0.67771048     0.08100
H2001       H  0.83749609  0.72580432  0.62662077     0.26500
H2002       H  0.96851784  0.80920630  0.68275544     0.21300
H2003       H  0.82470962  0.64816535  0.71151114     0.26600
H2004       H  0.95503277  0.68643718  0.67150464     0.15400
C2005       C  0.69398001  0.94093379  0.32062953    -0.11800
C2006       C  0.70438076  0.91884909  0.32847829     0.14700
C2007       C  0.72377605  0.90035898  0.32310523     0.01600
C2008       C  0.73142858  0.90355301  0.31003370    -0.16200
C2009       C  0.71920354  0.92394819  0.30201035    -0.11000
C2010       C  0.70156199  0.94409805  0.30754460     0.08300
C2011       C  0.69486694  0.91582511  0.34222160     0.09400
S2012       S  0.73783534  0.87072875  0.33230589    -0.25300
H2013       H  0.74483848  0.88781127  0.30600304     0.19600
S2014       S  0.68878981  0.97500309  0.29852953    -0.31000
H2015       H  0.67997171  0.95597959  0.32475476     0.09900
C2016       C  0.72431572  0.93487356  0.35142822     0.03100
C2017       C  0.71430615  0.92930945  0.36431953    -0.13300
C2018       C  0.67521884  0.90554473  0.36838800    -0.09000
C2019       C  0.64545888  0.88813017  0.35904116     0.06600
C2020       C  0.65568458  0.89317675  0.34611489    -0.14100
S2021       S  0.77479551  0.96630724  0.34679917    -0.31000
H2022       H  0.73753208  0.94287900  0.37128134     0.10800
S2023       S  0.59407152  0.86007761  0.36281898    -0.28100
H2024       H  0.63289598  0.87919240  0.33900404     0.08100
H2025       H  0.71999038  0.98758000  0.28987986     0.26500
H2026       H  0.78990927  0.97946435  0.35906278     0.21300
H2027       H  0.59631789  0.88307519  0.37335395     0.26600
H2028       H  0.70579113  0.85578693  0.34067199     0.15400
C2029       C  0.76632093  0.78983877  0.48492777    -0.11800
C2030       C  0.73961851  0.77287910  0.49494264     0.14700
C2031       C  0.70157169  0.76764338  0.49368158     0.01600
C2032       C  0.69127242  0.77940643  0.48242002    -0.16200
C2033       C  0.71829184  0.79716966  0.47249027    -0.11000
C2034       C  0.75611440  0.80183609  0.47374903     0.08300
C2035       C  0.75304205  0.76208186  0.50661318     0.09400
S2036       S  0.66485183  0.74722650  0.50602998    -0.25300
H2037       H  0.66229693  0.77588225  0.48157245     0.19600
S2038       S  0.79246767  0.82207167  0.46135333    -0.31000
H2039       H  0.79543522  0.79373629  0.48583764     0.09900
C2040       C  0.75044524  0.72525508  0.50793204     0.03100
C2041       C  0.76422251  0.71664618  0.51909505    -0.13300
C2042       C  0.78076729  0.74427451  0.52894392    -0.09000
C2043       C  0.78238535  0.78081102  0.52768254     0.06600
C2044       C  0.76914983  0.78952557  0.51647959    -0.14100
S2045       S  0.72947578  0.68922424  0.49542123    -0.31000
H2046       H  0.76262617  0.68852822  0.52009342     0.10800
S2047       S  0.79905718  0.81666880  0.54026227    -0.28100
H2048       H  0.77069597  0.81765482  0.51552648     0.08100
H2049       H  0.76560188  0.80619581  0.45125005     0.26500
H2050       H  0.74041006  0.66303154  0.50047798     0.21300
H2051       H  0.78206679  0.78892533  0.55009577     0.26600
H2052       H  0.68620681  0.74082375  0.51543461     0.15400
C2053       C  0.32516718  0.22079837  0.65496494    -0.11800
C2054       C  0.35744094  0.24735344  0.66217534     0.14700
C2055       C  0.39296572  0.27317810  0.65596773     0.01600
C2056       C  0.39562598  0.27130935  0.64271539    -0.16200
C2057       C  0.36325595  0.24450782  0.63550788    -0.11000
C2058       C  0.32772633  0.21885530  0.64178989     0.08300
C2059       C  0.35422872  0.24392990  0.67618515     0.09400
S2060       S  0.43566144  0.30903619  0.66447173    -0.25300
H2061       H  0.42287720  0.29121834  0.63798929     0.19600
S2062       S  0.28531416  0.18104837  0.63366994    -0.31000
H2063       H  0.29818021  0.20027940  0.65971519     0.09900
C2064       C  0.33017058  0.25424025  0.68316015     0.03100
C2065       C  0.32657544  0.24825587  0.69639407    -0.13300
C2066       C  0.34661355  0.23212413  0.70266616    -0.09000
C2067       C  0.37020311  0.22142161  0.69558539     0.06600
C2068       C  0.37387791  0.22755477  0.68248819    -0.14100
S2069       S  0.30516487  0.27608326  0.67523239    -0.31000
H2070       H  0.30888312  0.25679975  0.70189161     0.10800
S2071       S  0.39615672  0.19945551  0.70274018    -0.28100
H2072       H  0.39173284  0.21889803  0.67710856     0.08100
H2073       H  0.30695410  0.17115481  0.62538679     0.26500
H2074       H  0.28701810  0.28042758  0.68611338     0.21300
H2075       H  0.36687065  0.17694132  0.71164892     0.26600
H2076       H  0.41488843  0.31506579  0.67422083     0.15400
C2077       C  0.04987169  0.93543994  0.58070260    -0.11800
C2078       C  0.07243677  0.94286308  0.56968561     0.14700
C2079       C  0.05855431  0.91478566  0.55981812     0.01600
C2080       C  0.02295369  0.87960231  0.56131996    -0.16200
C2081       C  0.00066220  0.87186966  0.57246404    -0.11000
C2082       C  0.01405505  0.90065734  0.58211883     0.08300
C2083       C  0.11153336  0.97879640  0.56926265     0.09400
S2084       S  0.08525877  0.92195939  0.54523054    -0.25300
H2085       H  0.01285264  0.85785716  0.55381579     0.19600
S2086       S  0.98621994  0.89533479  0.59628147    -0.31000
H2087       H  0.06033205  0.95696974  0.58827792     0.09900
C2088       C  0.11600112  0.01623409  0.56734247     0.03100
C2089       C  0.15355621  0.04963820  0.56801469    -0.13300
C2090       C  0.18675628  0.04629372  0.57062167    -0.09000
C2091       C  0.18216000  0.00845643  0.57185332     0.06600
C2092       C  0.14472056  0.97532492  0.57134502    -0.14100
S2093       S  0.07384267  0.02146721  0.56423151    -0.31000
H2094       H  0.15686124  0.07849054  0.56698442     0.10800
S2095       S  0.22297373  0.00036752  0.57366466    -0.28100
H2096       H  0.14137201  0.94650039  0.57260777     0.08100
H2097       H  0.94961398  0.87679881  0.59012631     0.26500
H2098       H  0.09502291  0.06063973  0.56008902     0.21300
H2099       H  0.24819718  0.03158212  0.56569368     0.26600
H2100       H  0.10242292  0.96299172  0.54494419     0.15400
C2101       C  0.58314962  0.40332306  0.57559140    -0.11800
C2102       C  0.59106078  0.42852906  0.58594421     0.14700
C2103       C  0.56404167  0.41646991  0.59609807     0.01600
C2104       C  0.52909305  0.38018074  0.59543464    -0.16200
C2105       C  0.52057168  0.35545838  0.58485458    -0.11000
C2106       C  0.54864159  0.36688792  0.57500902     0.08300
C2107       C  0.62642817  0.46811014  0.58541119     0.09400
S2108       S  0.57166461  0.44681119  0.60984343    -0.25300
H2109       H  0.50781972  0.37180298  0.60302076     0.19600
S2110       S  0.54239476  0.33622873  0.56146444    -0.31000
H2111       H  0.60394364  0.41230033  0.56783449     0.09900
C2112       C  0.66353053  0.47477309  0.58920244     0.03100
C2113       C  0.69622271  0.51274728  0.58833438    -0.13300
C2114       C  0.69275870  0.54420663  0.58351429    -0.09000
C2115       C  0.65528146  0.53720856  0.57978347     0.06600
C2116       C  0.62277283  0.49936473  0.58069235    -0.14100
S2117       S  0.66913916  0.43481010  0.59508203    -0.31000
H2118       H  0.72479899  0.51779323  0.59113674     0.10800
S2119       S  0.64649384  0.57539413  0.57428044    -0.28100
H2120       H  0.59421816  0.49423857  0.57778544     0.08100
H2121       H  0.51973768  0.30028605  0.56778349     0.26500
H2122       H  0.70960271  0.45697781  0.59750363     0.21300
H2123       H  0.67267671  0.60361447  0.58292629     0.26600
H2124       H  0.61278082  0.46633197  0.60968288     0.15400
C2125       C  0.13099401  0.84228834  0.34888398    -0.11800
C2126       C  0.13771573  0.81540864  0.34230901     0.14700
C2127       C  0.14656377  0.78999380  0.34921840     0.01600
C2128       C  0.14934506  0.79277118  0.36251246    -0.16200
C2129       C  0.14313199  0.82020912  0.36906985    -0.11000
C2130       C  0.13418949  0.84543654  0.36206195     0.08300
C2131       C  0.14169151  0.81967702  0.32833396     0.09400
S2132       S  0.15514980  0.75396972  0.34162024    -0.25300
H2133       H  0.15650256  0.77351332  0.36776268     0.19600
S2134       S  0.13080594  0.88531760  0.36910472    -0.31000
H2135       H  0.12570205  0.86284261  0.34361361     0.09900
C2136       C  0.11047373  0.81457040  0.32044329     0.03100
C2137       C  0.11733043  0.82362472  0.30744082    -0.13300
C2138       C  0.15483098  0.83797923  0.30230206    -0.09000
C2139       C  0.18592512  0.84312877  0.31024255     0.06600
C2140       C  0.17900469  0.83379814  0.32310791    -0.14100
S2141       S  0.06192344  0.79594521  0.32689255    -0.31000
H2142       H  0.09350189  0.81906321  0.30123213     0.10800
S2143       S  0.23531885  0.86207285  0.30456264    -0.28100
H2144       H  0.20323261  0.83872366  0.32919987     0.08100
H2145       H  0.16341503  0.89713805  0.37711197     0.26500
H2146       H  0.04396480  0.79751862  0.31552571     0.21300
H2147       H  0.23387941  0.88696114  0.29526878     0.26600
H2148       H  0.13287219  0.74959250  0.33066599     0.15400
C2149       C  0.90766578  0.89840060  0.43519705    -0.11800
C2150       C  0.90875940  0.86433543  0.43215265     0.14700
C2151       C  0.87376273  0.83010660  0.42863964     0.01600
C2152       C  0.83895635  0.83121586  0.42772921    -0.16200
C2153       C  0.83791074  0.86557846  0.43044151    -0.11000
C2154       C  0.87286758  0.89959457  0.43423307     0.08300
C2155       C  0.94726215  0.86638541  0.43169305     0.09400
S2156       S  0.87160519  0.78432699  0.42494732    -0.25300
H2157       H  0.81232457  0.80487040  0.42493145     0.19600
S2158       S  0.87589387  0.94619838  0.43700254    -0.31000
H2159       H  0.93454917  0.92481326  0.43776552     0.09900
C2160       C  0.96494673  0.86711801  0.42000838     0.03100
C2161       C  0.00081450  0.86786588  0.41991802    -0.13300
C2162       C  0.01988401  0.86819210  0.43127287    -0.09000
C2163       C  0.00201396  0.86778510  0.44300547     0.06600
C2164       C  0.96628312  0.86742138  0.44306381    -0.14100
S2165       S  0.94222133  0.86791520  0.40517218    -0.31000
H2166       H  0.01432866  0.86867851  0.41089419     0.10800
S2167       S  0.02178154  0.86544071  0.45819697    -0.28100
H2168       H  0.95257635  0.86676997  0.45204985     0.08100
H2169       H  0.85006424  0.94209701  0.42714563     0.26500
H2170       H  0.97272324  0.87248698  0.39714978     0.21300
H2171       H  0.03222950  0.83782454  0.45421751     0.26600
H2172       H  0.90443785  0.79094192  0.43210951     0.15400
C2173       C  0.41092307  0.90323079  0.42081513    -0.11800
C2174       C  0.40878647  0.86752847  0.41779788     0.14700
C2175       C  0.37185612  0.83431506  0.41529728     0.01600
C2176       C  0.33792778  0.83703967  0.41645176    -0.16200
C2177       C  0.33988400  0.87254868  0.41975063    -0.11000
C2178       C  0.37709532  0.90630793  0.42151746     0.08300
C2179       C  0.44527086  0.86536225  0.41787226     0.09400
S2180       S  0.36612383  0.78773034  0.41054184    -0.25300
H2181       H  0.30968218  0.81108701  0.41482318     0.19600
S2182       S  0.38357961  0.95443926  0.42403401    -0.31000
H2183       H  0.43924855  0.92899746  0.42251982     0.09900
C2184       C  0.47465877  0.88453366  0.40860372     0.03100
C2185       C  0.50892529  0.88200224  0.40920197    -0.13300
C2186       C  0.51434159  0.86072595  0.41890890    -0.09000
C2187       C  0.48427021  0.84057932  0.42794578     0.06600
C2188       C  0.45038111  0.84345845  0.42740695    -0.14100
S2189       S  0.46822051  0.91171536  0.39592968    -0.31000
H2190       H  0.53200970  0.89742898  0.40230294     0.10800
S2191       S  0.48698576  0.81005738  0.44023812    -0.28100
H2192       H  0.42762299  0.82829470  0.43444211     0.08100
H2193       H  0.35255244  0.94875871  0.41603611     0.26500
H2194       H  0.50365909  0.92268034  0.38962615     0.21300
H2195       H  0.50944857  0.79804780  0.43320489     0.26600
H2196       H  0.40236352  0.80307628  0.40429966     0.15400
C2197       C  0.31857044  0.08552775  0.50766097    -0.11800
C2198       C  0.27961478  0.05488465  0.50678249     0.14700
C2199       C  0.25332225  0.04914211  0.51675714     0.01600
C2200       C  0.26645066  0.07417266  0.52728030    -0.16200
C2201       C  0.30560295  0.10439216  0.52831181    -0.11000
C2202       C  0.33167392  0.11062137  0.51820605     0.08300
C2203       C  0.26722447  0.02955920  0.49534375     0.09400
S2204       S  0.20289435  0.01007300  0.51679639    -0.25300
H2205       H  0.24613889  0.06919070  0.53494787     0.19600
S2206       S  0.38111878  0.15131543  0.51784130    -0.31000
H2207       H  0.33867414  0.09041619  0.49993951     0.09900
C2208       C  0.24213965  0.03135632  0.48617711     0.03100
C2209       C  0.22972200  0.00538376  0.47583326    -0.13300
C2210       C  0.24184059  0.97751005  0.47439340    -0.09000
C2211       C  0.26714953  0.97605004  0.48366167     0.06600
C2212       C  0.27994427  0.00237419  0.49387488    -0.14100
S2213       S  0.22634396  0.06704171  0.48759422    -0.31000
H2214       H  0.21075760  0.00707419  0.46874498     0.10800
S2215       S  0.28221152  0.93984861  0.48352321    -0.28100
H2216       H  0.29893518  0.00076013  0.50100552     0.08100
H2217       H  0.37220113  0.17771167  0.52389281     0.26500
H2218       H  0.20615033  0.05863459  0.47597587     0.21300
H2219       H  0.24476619  0.90887478  0.48031451     0.26600
H2220       H  0.20850661  0.98337771  0.50953884     0.15400
C2221       C  0.26517669  0.40888566  0.34757799    -0.11800
C2222       C  0.25068611  0.37132267  0.34234472     0.14700
C2223       C  0.23616875  0.33873931  0.35053645     0.01600
C2224       C  0.23277774  0.34377858  0.36351232    -0.16200
C2225       C  0.24438845  0.38096798  0.36878866    -0.11000
C2226       C  0.26280771  0.41415245  0.36070330     0.08300
C2227       C  0.24623275  0.36617332  0.32835180     0.09400
S2228       S  0.21918281  0.28953386  0.34490569    -0.25300
H2229       H  0.21926715  0.31777920  0.36942269     0.19600
S2230       S  0.28378386  0.46372849  0.36643475    -0.31000
H2231       H  0.27729118  0.43416114  0.34134071     0.09900
C2232       C  0.20920623  0.35162539  0.32260580     0.03100
C2233       C  0.20552159  0.34686764  0.30938850    -0.13300
C2234       C  0.23814515  0.35667145  0.30165465    -0.09000
C2235       C  0.27515099  0.37024539  0.30749131     0.06600
C2236       C  0.27882292  0.37512411  0.32073964    -0.14100
S2237       S  0.16678603  0.34109082  0.33202721    -0.31000
H2238       H  0.17730941  0.33728878  0.30499974     0.10800
S2239       S  0.31853631  0.38113591  0.29863696    -0.28100
H2240       H  0.30716790  0.38560496  0.32516412     0.08100
H2241       H  0.29766718  0.45660787  0.37787938     0.26500
H2242       H  0.13875176  0.32069809  0.32251311     0.21300
H2243       H  0.29870544  0.35242148  0.28925577     0.26600
H2244       H  0.24367559  0.30035318  0.33419460     0.15400
C2245       C  0.15603896  0.07461172  0.44230529    -0.11800
C2246       C  0.16283893  0.09723063  0.43131214     0.14700
C2247       C  0.17047787  0.08410334  0.41977210     0.01600
C2248       C  0.17401633  0.05055594  0.41965922    -0.16200
C2249       C  0.16808504  0.02803821  0.43069906    -0.11000
C2250       C  0.15707406  0.03958860  0.44204371     0.08300
C2251       C  0.16455777  0.13565410  0.43220489     0.09400
S2252       S  0.17560053  0.10867102  0.40481713    -0.25300
H2253       H  0.18080844  0.04163722  0.41072872     0.19600
S2254       S  0.14438445  0.01174224  0.45656400    -0.31000
H2255       H  0.14984097  0.08433712  0.45118396     0.09900
C2256       C  0.13188978  0.13899306  0.43578558     0.03100
C2257       C  0.13460119  0.17591824  0.43548280    -0.13300
C2258       C  0.16927421  0.20953664  0.43163525    -0.09000
C2259       C  0.20260569  0.20631113  0.42882416     0.06600
C2260       C  0.19979177  0.16956319  0.42908536    -0.14100
S2261       S  0.08590063  0.09609631  0.43983535    -0.31000
H2262       H  0.10901159  0.17827231  0.43761563     0.10800
S2263       S  0.24976251  0.24784787  0.42499566    -0.28100
H2264       H  0.22528321  0.16725622  0.42669915     0.08100
H2265       H  0.11190142  0.97900286  0.45107745     0.26500
H2266       H  0.06791447  0.11644189  0.44467954     0.21300
H2267       H  0.24579925  0.27440943  0.43291262     0.26600
H2268       H  0.14958505  0.12212547  0.40778978     0.15400
C2269       C  0.21530202  0.60154636  0.41090132    -0.11800
C2270       C  0.18281911  0.60421531  0.41490051     0.14700
C2271       C  0.14886830  0.57005228  0.41905345     0.01600
C2272       C  0.14861242  0.53446864  0.41959827    -0.16200
C2273       C  0.18145181  0.53172304  0.41597919    -0.11000
C2274       C  0.21522800  0.56592024  0.41155297     0.08300
C2275       C  0.18602655  0.64329879  0.41572990     0.09400
S2276       S  0.10536415  0.57029376  0.42417063    -0.25300
H2277       H  0.12240521  0.50859717  0.42292144     0.19600
S2278       S  0.26021673  0.56698188  0.40767232    -0.31000
H2279       H  0.24158746  0.62781588  0.40785390     0.09900
C2280       C  0.19039704  0.66174824  0.42756005     0.03100
C2281       C  0.18933051  0.69674551  0.42817783    -0.13300
C2282       C  0.18443259  0.71421966  0.41718497    -0.09000
C2283       C  0.18142248  0.69619384  0.40525637     0.06600
C2284       C  0.18258699  0.66120597  0.40467047    -0.14100
S2285       S  0.19746096  0.64069219  0.44188581    -0.31000
H2286       H  0.19244192  0.71068209  0.43730513     0.10800
S2287       S  0.17391777  0.71489453  0.39052820    -0.28100
H2288       H  0.17924877  0.64699244  0.39557198     0.08100
H2289       H  0.25809484  0.54333973  0.41798985     0.26500
H2290       H  0.20286853  0.67100888  0.45016968     0.21300
H2291       H  0.14736436  0.72522254  0.39562226     0.26600
H2292       H  0.10936919  0.59982981  0.41576870     0.15400
C2293       C  0.47424075  0.63364995  0.41954569    -0.11800
C2294       C  0.44209700  0.63630711  0.41516707     0.14700
C2295       C  0.44767147  0.67325101  0.41151481     0.01600
C2296       C  0.48505350  0.70662414  0.41249789    -0.16200
C2297       C  0.51725770  0.70426082  0.41719976    -0.11000
C2298       C  0.51163850  0.66686036  0.42041264     0.08300
C2299       C  0.40305279  0.60019151  0.41519266     0.09400
S2300       S  0.40844641  0.67985586  0.40556301    -0.25300
H2301       H  0.48871511  0.73491153  0.40993152     0.19600
S2302       S  0.55110374  0.65903196  0.42509731    -0.31000
H2303       H  0.47016895  0.60527713  0.42222633     0.09900
C2304       C  0.38743531  0.57614144  0.40437405     0.03100
C2305       C  0.35145707  0.54079584  0.40529792    -0.13300
C2306       C  0.33083761  0.52908877  0.41685539    -0.09000
C2307       C  0.34590666  0.55443925  0.42748573     0.06600
C2308       C  0.38197093  0.58911559  0.42658367    -0.14100
S2309       S  0.41393010  0.58983279  0.38954880    -0.31000
H2310       H  0.33997342  0.52164835  0.39711996     0.10800
S2311       S  0.32030240  0.54514666  0.44241425    -0.28100
H2312       H  0.39367421  0.60792543  0.43484281     0.08100
H2313       H  0.57823155  0.68674900  0.41653784     0.26500
H2314       H  0.38433366  0.55984010  0.38216742     0.21300
H2315       H  0.28245040  0.52659295  0.43714512     0.26600
H2316       H  0.37807789  0.64923968  0.41247180     0.15400
C2317       C  0.89621612  0.07302936  0.42027939    -0.11800
C2318       C  0.90666226  0.09355731  0.43179885     0.14700
C2319       C  0.88307963  0.07647557  0.44263045     0.01600
C2320       C  0.84881010  0.03988744  0.44156745    -0.16200
C2321       C  0.83785550  0.01959152  0.42994958    -0.11000
C2322       C  0.86268927  0.03607423  0.41928215     0.08300
C2323       C  0.94226949  0.13277669  0.43200519     0.09400
S2324       S  0.89475094  0.10006407  0.45796371    -0.25300
H2325       H  0.83017762  0.02750762  0.44982145     0.19600
S2326       S  0.85440087  0.01115144  0.40425071    -0.31000
H2327       H  0.91470637  0.08580022  0.41201178     0.09900
C2328       C  0.97977130  0.13680685  0.43201255     0.03100
C2329       C  0.01292794  0.17421765  0.43107957    -0.13300
C2330       C  0.00931132  0.20774606  0.42978905    -0.09000
C2331       C  0.97166734  0.20371976  0.42982174     0.06600
C2332       C  0.93849606  0.16621940  0.43102378    -0.14100
S2333       S  0.98547424  0.09427932  0.43323256    -0.31000
H2334       H  0.04179018  0.17726867  0.43110731     0.10800
S2335       S  0.96570189  0.24614045  0.42855499    -0.28100
H2336       H  0.90946109  0.16269134  0.43090165     0.08100
H2337       H  0.83694220  0.97318107  0.40938640     0.26500
H2338       H  0.02257187  0.11197515  0.42744076     0.21300
H2339       H  0.92476858  0.22615148  0.43003413     0.26600
H2340       H  0.93560082  0.12079243  0.45635752     0.15400
C2341       C  0.81683735  0.19678335  0.68339402    -0.11800
C2342       C  0.82647193  0.17369876  0.67583943     0.14700
C2343       C  0.84051977  0.15072014  0.68166897     0.01600
C2344       C  0.84302763  0.15033797  0.69496531    -0.16200
C2345       C  0.83279964  0.17314041  0.70255663    -0.11000
C2346       C  0.82079129  0.19760418  0.69655762     0.08300
C2347       C  0.82331371  0.17637979  0.66192987     0.09400
S2348       S  0.85609120  0.12161776  0.67284083    -0.25300
H2349       H  0.85309640  0.13216123  0.69941569     0.19600
S2350       S  0.81303229  0.23301477  0.70491729    -0.31000
H2351       H  0.80720577  0.21531931  0.67892764     0.09900
C2352       C  0.79508724  0.14473635  0.65468465     0.03100
C2353       C  0.79393908  0.14893091  0.64148217    -0.13300
C2354       C  0.81977436  0.18446848  0.63545862    -0.09000
C2355       C  0.84733951  0.21644351  0.64283610     0.06600
C2356       C  0.84846874  0.21215333  0.65596782    -0.14100
S2357       S  0.76014338  0.09941213  0.66226645    -0.31000
H2358       H  0.77291990  0.12448865  0.63579815     0.10800
S2359       S  0.88359132  0.26254101  0.63604783    -0.28100
H2360       H  0.86993356  0.23659815  0.66157494     0.08100
H2361       H  0.84415916  0.24359180  0.71346336     0.26500
H2362       H  0.73958641  0.08002535  0.65118948     0.21300
H2363       H  0.89232922  0.24560586  0.62572827     0.26600
H2364       H  0.86307751  0.14124525  0.66116247     0.15400
C2365       C  0.88621520  0.51281046  0.58395902    -0.11800
C2366       C  0.84956943  0.47861086  0.58269412     0.14700
C2367       C  0.81533990  0.48159540  0.58282012     0.01600
C2368       C  0.81842934  0.51834750  0.58427524    -0.16200
C2369       C  0.85510315  0.55263500  0.58509879    -0.11000
C2370       C  0.88934644  0.54970134  0.58508557     0.08300
C2371       C  0.84786967  0.44016455  0.58179941     0.09400
S2372       S  0.76712158  0.43993468  0.58041192    -0.25300
H2373       H  0.79206351  0.52043750  0.58399442     0.19600
S2374       S  0.93769455  0.59185007  0.58664135    -0.31000
H2375       H  0.91256553  0.51069786  0.58407836     0.09900
C2376       C  0.86275245  0.43004944  0.57121589     0.03100
C2377       C  0.86144800  0.39376602  0.57099689    -0.13300
C2378       C  0.84499375  0.36657103  0.58107310    -0.09000
C2379       C  0.82850991  0.37662843  0.59143483     0.06600
C2380       C  0.83096494  0.41332528  0.59176134    -0.14100
S2381       S  0.88274640  0.46304798  0.55784169    -0.31000
H2382       H  0.87369040  0.38683884  0.56288673     0.10800
S2383       S  0.80269220  0.34437030  0.60444456    -0.28100
H2384       H  0.81898566  0.42089957  0.59982599     0.08100
H2385       H  0.92609810  0.61384548  0.59411812     0.26500
H2386       H  0.89019650  0.43842991  0.55010271     0.21300
H2387       H  0.77837906  0.31276968  0.59646657     0.26600
H2388       H  0.77908927  0.42076559  0.57177858     0.15400
C2389       C  0.87202532  0.00451832  0.58278857    -0.11800
C2390       C  0.85909521  0.98394899  0.57131012     0.14700
C2391       C  0.85049252  0.00116804  0.56095574     0.01600
C2392       C  0.85306211  0.03767079  0.56254187    -0.16200
C2393       C  0.86500102  0.05786170  0.57416381    -0.11000
C2394       C  0.87587917  0.04152335  0.58423413     0.08300
C2395       C  0.85437819  0.94436814  0.57065809     0.09400
S2396       S  0.83597113  0.97815118  0.54556024    -0.25300
H2397       H  0.84527319  0.05022229  0.55467889     0.19600
S2398       S  0.89681667  0.06716531  0.59888185    -0.31000
H2399       H  0.87964469  0.99177201  0.59063850     0.09900
C2400       C  0.88700224  0.93928583  0.56922352     0.03100
C2401       C  0.88175787  0.90141585  0.56966889    -0.13300
C2402       C  0.84456650  0.86847273  0.57172040    -0.09000
C2403       C  0.81171685  0.87360810  0.57289529     0.06600
C2404       C  0.81701232  0.91157468  0.57230357    -0.14100
S2405       S  0.93531419  0.98114832  0.56688110    -0.31000
H2406       H  0.90693282  0.89750191  0.56878182     0.10800
S2407       S  0.76294023  0.83208396  0.57474343    -0.28100
H2408       H  0.79215889  0.91595363  0.57331325     0.08100
H2409       H  0.91824857  0.10431251  0.59315385     0.26500
H2410       H  0.95547276  0.96018197  0.56618693     0.21300
H2411       H  0.74363981  0.85360749  0.57643392     0.26600
H2412       H  0.85451525  0.95572514  0.54648183     0.15400
C2413       C  0.61699113  0.15896646  0.58538369    -0.11800
C2414       C  0.61580797  0.19371314  0.58676876     0.14700
C2415       C  0.65122899  0.22945808  0.58849293     0.01600
C2416       C  0.68699351  0.22985344  0.58821710    -0.16200
C2417       C  0.68835294  0.19522802  0.58635069    -0.11000
C2418       C  0.65264695  0.15926187  0.58526744     0.08300
C2419       C  0.57741828  0.19189640  0.58562937     0.09400
S2420       S  0.65278881  0.27566291  0.59056050    -0.25300
H2421       H  0.71402685  0.25761495  0.58906252     0.19600
S2422       S  0.65044950  0.11263173  0.58390409    -0.31000
H2423       H  0.58987226  0.13140279  0.58422292     0.09900
C2424       C  0.56588052  0.20176054  0.57417982     0.03100
C2425       C  0.52940041  0.19979872  0.57345451    -0.13300
C2426       C  0.50400878  0.18811883  0.58395247    -0.09000
C2427       C  0.51525138  0.17711382  0.59531639     0.06600
C2428       C  0.55180236  0.17929120  0.59603763    -0.14100
S2429       S  0.59751815  0.21647103  0.56044173    -0.31000
H2430       H  0.52089464  0.20814692  0.56473389     0.10800
S2431       S  0.48391658  0.15881877  0.60906041    -0.28100
H2432       H  0.56033505  0.17096692  0.60476728     0.08100
H2433       H  0.68324442  0.12301859  0.59167967     0.26500
H2434       H  0.57438288  0.22574547  0.55260722     0.21300
H2435       H  0.44866713  0.13964408  0.60215206     0.26600
H2436       H  0.61614471  0.26029174  0.59652020     0.15400
C2437       C  0.07164125  0.20941920  0.56379934    -0.11800
C2438       C  0.08953224  0.21093068  0.57545441     0.14700
C2439       C  0.07280074  0.21487100  0.58678942     0.01600
C2440       C  0.03914596  0.21818846  0.58617700    -0.16200
C2441       C  0.02095453  0.21675960  0.57450694    -0.11000
C2442       C  0.03779256  0.21241052  0.56318726     0.08300
C2443       C  0.12646939  0.20995274  0.57537447     0.09400
S2444       S  0.09247228  0.21539051  0.60234251    -0.25300
H2445       H  0.02650901  0.22096305  0.59497911     0.19600
S2446       S  0.01917455  0.21299015  0.54764773    -0.31000
H2447       H  0.08471251  0.20675645  0.55507601     0.09900
C2448       C  0.12651011  0.17444143  0.57403883     0.03100
C2449       C  0.16226228  0.17487804  0.57367693    -0.13300
C2450       C  0.19798346  0.21019132  0.57486437    -0.09000
C2451       C  0.19774886  0.24575349  0.57629658     0.06600
C2452       C  0.16203470  0.24520875  0.57660413    -0.14100
S2453       S  0.08101500  0.12845277  0.57325887    -0.31000
H2454       H  0.16234693  0.14754574  0.57274003     0.10800
S2455       S  0.24194060  0.29283478  0.57736485    -0.28100
H2456       H  0.16192451  0.27251403  0.57764663     0.08100
H2457       H  0.01266587  0.24387049  0.55084846     0.26500
H2458       H  0.09685989  0.10531871  0.57737258     0.21300
H2459       H  0.26429703  0.28323660  0.56929666     0.26600
H2460       H  0.11277761  0.19582205  0.59912293     0.15400
C2461       C  0.95251979  0.29065601  0.50433437    -0.11800
C2462       C  0.98858279  0.29176084  0.50350868     0.14700
C2463       C  0.00190479  0.27920882  0.51396051     0.01600
C2464       C  0.97975374  0.26724682  0.52508897    -0.16200
C2465       C  0.94389471  0.26636024  0.52605538    -0.11000
C2466       C  0.92970025  0.27737710  0.51540509     0.08300
C2467       C  0.01210010  0.30617116  0.49174633     0.09400
S2468       S  0.04699745  0.27790755  0.51377575    -0.25300
H2469       H  0.99073522  0.25865952  0.53311518     0.19600
S2470       S  0.88205587  0.27314329  0.51510480    -0.31000
H2471       H  0.94182988  0.29954329  0.49623231     0.09900
C2472       C  0.00369219  0.28165958  0.48107752     0.03100
C2473       C  0.02958158  0.29463745  0.47074092    -0.13300
C2474       C  0.06391875  0.33156132  0.47086758    -0.09000
C2475       C  0.07197620  0.35622147  0.48154156     0.06600
C2476       C  0.04574144  0.34347707  0.49176786    -0.14100
S2477       S  0.96141045  0.23289120  0.48097768    -0.31000
H2478       H  0.02347145  0.27564949  0.46258999     0.10800
S2479       S  0.11651773  0.40270941  0.48316350    -0.28100
H2480       H  0.05253055  0.36199721  0.50008428     0.08100
H2481       H  0.86378741  0.23958914  0.52286188     0.26500
H2482       H  0.96544766  0.22356334  0.46837198     0.21300
H2483       H  0.14063078  0.39072450  0.47716870     0.26600
H2484       H  0.04671982  0.27008587  0.50074387     0.15400
loop_ 
_geom_bond_atom_site_label_1 
_geom_bond_atom_site_label_2 
_geom_bond_distance 
_geom_bond_site_symmetry_2 
_ccdc_geom_bond_type 
Zr1           O2   2.439       .  S
Zr1           O3   2.446       .  S
Zr1           O4   2.429       .  S
Zr1           O7   2.420       .  S
Zr1           O9   2.376       .  S
Zr1          O10   2.378       .  S
Zr1          O11   2.410       .  S
Zr1          O12   2.401       .  S
O2           H58   0.990       .  S
O2           H66   0.990       .  S
O3           C23   1.286       .  A
O4           C25   1.284       .  A
O5          Zr15   2.438       .  S
O5           C24   1.285       .  A
O6          Zr14   2.438       .  S
O6           C25   1.285       .  A
O7           C24   1.283       .  A
O8          Zr16   2.422       .  S
O8           C23   1.282       .  A
O9          Zr14   2.392       .  S
O9          Zr16   2.370       .  S
O10         Zr15   2.384       .  S
O10         Zr16   2.379       .  S
O10          H45   0.966       .  S
O11         Zr14   2.400       .  S
O11         Zr31   2.405       .  S
O11          H48   0.966       .  S
O12         Zr15   2.380       .  S
O12         Zr31   2.393       .  S
Zr13         O38   2.438       .  S
Zr13         O32   2.447       .  S
Zr13         O40   2.443       .  S
Zr13         O28   2.449       .  S
Zr13         O19   2.392       .  S
Zr13         O20   2.411       .  S
Zr13         O21   2.378       .  S
Zr13         O22   2.388       .  S
Zr14         O33   2.436       .  S
Zr14         O26   2.435       .  S
Zr14         O27   2.434       .  S
Zr14         O20   2.402       .  S
Zr14         O21   2.392       .  S
Zr15         O17   2.435       .  S
Zr15         O39   2.436       .  S
Zr15         O41   2.412       .  S
Zr15         O19   2.389       .  S
Zr15         O22   2.394       .  S
Zr16         O42   2.435       .  S
Zr16         O43   2.435       .  S
Zr16         O18   2.437       .  S
Zr16         O19   2.383       .  S
Zr16         O20   2.407       .  S
O17          H54   0.990       .  S
O18          H49   0.990   1_655  S
O18          H63   0.990       .  S
O20          H46   0.966       .  S
O21         Zr31   2.375       .  S
O22         Zr31   2.385       .  S
O22          H47   0.966       .  S
C23        C2441   1.489   1_655  S
C24        C2393   1.477       .  S
C25        C2465   1.480       .  S
O26          H62   0.990       .  S
O27          C29   1.286       .  A
O28          C29   1.285       .  A
C29        C2378   1.505       .  S
O30         Zr31   2.440       .  S
O30          H59   0.990       .  S
Zr31         O34   2.437       .  S
Zr31         O35   2.440       .  S
Zr31         O36   2.430       .  S
O32          C37   1.286       .  A
O33          H50   0.990       .  S
O33          H65   0.990       .  S
O34          H51   0.990       .  S
O35          H55   0.990       .  S
O35          H64   0.989       .  S
O36          C37   1.284       .  A
C37        C2417   1.487       .  S
O38          H57   0.990       .  S
O38          H61   0.989       .  S
O39          H53   0.990       .  S
O39          H60   0.990       .  S
O40          C44   1.286       .  A
O41          C44   1.281       .  A
O42          H52   0.990       .  S
O43          H56   0.990       .  S
C44        C2354   1.472       .  S
Zr67         O68   2.437       .  S
Zr67         O69   2.419       .  S
Zr67         O70   2.422       .  S
Zr67         O73   2.432       .  S
Zr67         O75   2.381       .  S
Zr67         O76   2.378       .  S
Zr67         O77   2.407       .  S
Zr67         O78   2.396       .  S
O68         H124   0.990       .  S
O68         H132   0.990       .  S
O69          C89   1.282       .  A
O70          C91   1.283       .  A
O71         Zr81   2.425       .  S
O71          C90   1.284       .  A
O72         Zr80   2.446       .  S
O72          C91   1.287       .  A
O73          C90   1.285       .  A
O74         Zr82   2.443       .  S
O74          C89   1.286       .  A
O75         Zr80   2.385       .  S
O75         Zr82   2.368       .  S
O76         Zr81   2.382       .  S
O76         Zr82   2.374       .  S
O76         H111   0.966       .  S
O77         Zr80   2.398       .  S
O77         Zr97   2.404       .  S
O77         H114   0.966       .  S
O78         Zr81   2.381       .  S
O78         Zr97   2.391       .  S
Zr79        O104   2.446       .  S
Zr79         O98   2.437       .  S
Zr79        O106   2.464       .  S
Zr79         O94   2.446       .  S
Zr79         O85   2.400       .  S
Zr79         O86   2.416       .  S
Zr79         O87   2.388       .  S
Zr79         O88   2.384       .  S
Zr80         O99   2.437       .  S
Zr80         O92   2.436       .  S
Zr80         O93   2.429       .  S
Zr80         O86   2.402       .  S
Zr80         O87   2.389       .  S
Zr81         O83   2.434       .  S
Zr81        O105   2.437       .  S
Zr81        O107   2.406       .  S
Zr81         O85   2.392       .  S
Zr81         O88   2.385       .  S
Zr82        O108   2.434       .  S
Zr82        O109   2.435       .  S
Zr82         O84   2.437       .  S
Zr82         O85   2.398       .  S
Zr82         O86   2.403       .  S
O83         H120   0.990       .  S
O84         H115   0.990       .  S
O84         H129   0.990       .  S
O86         H112   0.966       .  S
O87         Zr97   2.373       .  S
O88         Zr97   2.381       .  S
O88         H113   0.966       .  S
C89        C2330   1.478       .  S
C90        C2258   1.479       .  S
C91        C2474   1.479       .  S
O92         H128   0.990       .  S
O93          C95   1.285       .  A
O94          C95   1.287       .  A
C95        C2273   1.487       .  S
O96         Zr97   2.441       .  S
O96         H125   0.990       .  S
Zr97        O100   2.437       .  S
Zr97        O101   2.440       .  S
Zr97        O102   2.428       .  S
O98         C103   1.286       .  A
O99         H116   0.990       .  S
O99         H131   0.990       .  S
O100        H117   0.990       .  S
O101        H121   0.990       .  S
O101        H130   0.990       .  S
O102        C103   1.284       .  A
C103       C2306   1.484       .  S
O104        H123   0.990       .  S
O104        H127   0.990       .  S
O105        H119   0.990       .  S
O105        H126   0.990       .  S
O106        C110   1.290       .  A
O107        C110   1.281       .  A
O108        H118   0.990       .  S
O109        H122   0.990       .  S
C110       C2225   1.497       .  S
Zr133       O134   2.437       .  S
Zr133       O135   2.425       .  S
Zr133       O136   2.428       .  S
Zr133       O139   2.431       .  S
Zr133       O141   2.381       .  S
Zr133       O142   2.379       .  S
Zr133       O143   2.405       .  S
Zr133       O144   2.405       .  S
O134        H190   0.990       .  S
O134        H198   0.990       .  S
O135        C155   1.281       .  A
O136        C157   1.284       .  A
O137       Zr147   2.436       .  S
O137        C156   1.285       .  A
O138       Zr146   2.445       .  S
O138        C157   1.287       .  A
O139        C156   1.284       .  A
O140       Zr148   2.436       .  S
O140        C155   1.286       .  A
O141       Zr146   2.393       .  S
O141       Zr148   2.371       .  S
O142       Zr147   2.382       .  S
O142       Zr148   2.374       .  S
O142        H177   0.966       .  S
O143       Zr146   2.398       .  S
O143       Zr163   2.406       .  S
O143        H180   0.966       .  S
O144       Zr147   2.386       .  S
O144       Zr163   2.400       .  S
Zr145       O170   2.449       .  S
Zr145       O164   2.437       .  S
Zr145       O172   2.439       .  S
Zr145       O160   2.432       .  S
Zr145       O151   2.399       .  S
Zr145       O152   2.407       .  S
Zr145       O153   2.378       .  S
Zr145       O154   2.389       .  S
Zr146       O165   2.437       .  S
Zr146       O158   2.433       .  S
Zr146       O159   2.444       .  S
Zr146       O152   2.397       .  S
Zr146       O153   2.385       .  S
Zr147       O149   2.435       .  S
Zr147       O171   2.440       .  S
Zr147       O173   2.422       .  S
Zr147       O151   2.392       .  S
Zr147       O154   2.388       .  S
Zr148       O174   2.435       .  S
Zr148       O175   2.437       .  S
Zr148       O150   2.436   1_565  S
Zr148       O151   2.389       .  S
Zr148       O152   2.403       .  S
O149        H186   0.990       .  S
O150        H181   0.990       .  S
O150        H195   0.990       .  S
O152        H178   0.966       .  S
O153       Zr163   2.371       .  S
O154       Zr163   2.384       .  S
O154        H179   0.966       .  S
C155       C2249   1.494   1_565  S
C156       C2162   1.489       .  S
C157       C2210   1.489       .  S
O158        H194   0.990       .  S
O159        C161   1.287       .  A
O160        C161   1.284       .  A
C161       C2177   1.484       .  S
O162       Zr163   2.440       .  S
O162        H191   0.990       .  S
Zr163       O166   2.437       .  S
Zr163       O167   2.440       .  S
Zr163       O168   2.433       .  S
O164        C169   1.285       .  A
O165        H182   0.990       .  S
O165        H197   0.989       .  S
O166        H183   0.990       .  S
O167        H187   0.990       .  S
O167        H196   0.990       .  S
O168        C169   1.285       .  A
C169       C2282   1.488       .  S
O170        H189   0.990       .  S
O170        H193   0.990       .  S
O171        H185   0.990       .  S
O171        H192   0.990       .  S
O172        C176   1.285       .  A
O173        C176   1.283       .  A
O174        H184   0.990       .  S
O175        H188   0.990       .  S
C176       C2129   1.478       .  S
Zr199       O200   2.438       .  S
Zr199       O201   2.428       .  S
Zr199       O202   2.425       .  S
Zr199       O205   2.424       .  S
Zr199       O207   2.380       .  S
Zr199       O208   2.382       .  S
Zr199       O209   2.405       .  S
Zr199       O210   2.405       .  S
O200        H256   0.990       .  S
O200        H264   0.990       .  S
O201        C221   1.283       .  A
O202        C223   1.284       .  A
O203       Zr213   2.437       .  S
O203        C222   1.283       .  A
O204       Zr212   2.446       .  S
O204        C223   1.288       .  A
O205        C222   1.283       .  A
O206       Zr214   2.442       .  S
O206        C221   1.286       .  A
O207       Zr212   2.389       .  S
O207       Zr214   2.368       .  S
O208       Zr213   2.391       .  S
O208       Zr214   2.372       .  S
O208        H243   0.966       .  S
O209       Zr212   2.394       .  S
O209       Zr229   2.398       .  S
O209        H246   0.966       .  S
O210       Zr213   2.382       .  S
O210       Zr229   2.401       .  S
Zr211       O236   2.442       .  S
Zr211       O230   2.457       .  S
Zr211       O238   2.458       .  S
Zr211       O226   2.442       .  S
Zr211       O217   2.402       .  S
Zr211       O218   2.415       .  S
Zr211       O219   2.379       .  S
Zr211       O220   2.388       .  S
Zr212       O231   2.436       .  S
Zr212       O224   2.437       .  S
Zr212       O225   2.431       .  S
Zr212       O218   2.399       .  S
Zr212       O219   2.391       .  S
Zr213       O215   2.435       .  S
Zr213       O237   2.439       .  S
Zr213       O239   2.415       .  S
Zr213       O217   2.394       .  S
Zr213       O220   2.393       .  S
Zr214       O240   2.436       .  S
Zr214       O241   2.435       .  S
Zr214       O216   2.435       .  S
Zr214       O217   2.390       .  S
Zr214       O218   2.405       .  S
O215        H252   0.990       .  S
O216        H247   0.990       .  S
O216        H261   0.990       .  S
O218        H244   0.966       .  S
O219       Zr229   2.373       .  S
O220       Zr229   2.390       .  S
O220        H245   0.966       .  S
C221       C2090   1.484       .  S
C222       C2450   1.475       .  S
C223       C2201   1.480       .  S
O224        H260   0.990       .  S
O225        C227   1.285       .  A
O226        C227   1.286       .  A
C227       C2426   1.484       .  S
O228       Zr229   2.439       .  S
O228        H257   0.990       .  S
Zr229       O232   2.438       .  S
Zr229       O233   2.440       .  S
Zr229       O234   2.421       .  S
O230        C235   1.287       .  A
O231        H248   0.990       .  S
O231        H263   0.990       .  S
O232        H249   0.990       .  S
O233        H253   0.990       .  S
O233        H262   0.990       .  S
O234        C235   1.281       .  A
C235       C2105   1.483       .  S
O236        H255   0.990       .  S
O236        H259   0.990       .  S
O237        H251   0.990       .  S
O237        H258   0.990       .  S
O238        C242   1.286       .  A
O239        C242   1.280       .  A
O240        H250   0.990       .  S
O241        H254   0.990       .  S
C242       C2057   1.477       .  S
Zr265       O266   2.437       .  S
Zr265       O267   2.424       .  S
Zr265       O268   2.428       .  S
Zr265       O271   2.435       .  S
Zr265       O273   2.382       .  S
Zr265       O274   2.383       .  S
Zr265       O275   2.406       .  S
Zr265       O276   2.404       .  S
O266        H322   0.990       .  S
O266        H330   0.990       .  S
O267        C287   1.283       .  A
O268        C289   1.285       .  A
O269       Zr279   2.433       .  S
O269        C288   1.283       .  A
O270       Zr278   2.447       .  S
O270        C289   1.288       .  A
O271        C288   1.285       .  A
O272       Zr280   2.431       .  S
O272        C287   1.284       .  A
O273       Zr278   2.386       .  S
O273       Zr280   2.365       .  S
O274       Zr279   2.396       .  S
O274       Zr280   2.377       .  S
O274        H309   0.965       .  S
O275       Zr278   2.399       .  S
O275       Zr295   2.399       .  S
O275        H312   0.966       .  S
O276       Zr279   2.381       .  S
O276       Zr295   2.403       .  S
Zr277       O302   2.440       .  S
Zr277       O296   2.445       .  S
Zr277       O304   2.461       .  S
Zr277       O292   2.446       .  S
Zr277       O283   2.392       .  S
Zr277       O284   2.417       .  S
Zr277       O285   2.384       .  S
Zr277       O286   2.392       .  S
Zr278       O297   2.436       .  S
Zr278       O290   2.433       .  S
Zr278       O291   2.438       .  S
Zr278       O284   2.405       .  S
Zr278       O285   2.390       .  S
Zr279       O281   2.435       .  S
Zr279       O303   2.441       .  S
Zr279       O305   2.420       .  S
Zr279       O283   2.388       .  S
Zr279       O286   2.387       .  S
Zr280       O306   2.436       .  S
Zr280       O307   2.436       .  S
Zr280       O282   2.435       .  S
Zr280       O283   2.382       .  S
Zr280       O284   2.407       .  S
O281        H318   0.990       .  S
O282        H313   0.990       .  S
O282        H327   0.990       .  S
O284        H310   0.966       .  S
O285       Zr295   2.373       .  S
O286       Zr295   2.393       .  S
O286        H311   0.966       .  S
C287       C2153   1.480       .  S
C288       C2321   1.480   1_565  S
C289       C2033   1.482       .  S
O290        H326   0.989       .  S
O291        C293   1.286       .  A
O292        C293   1.286       .  A
C293       C2297   1.492       .  S
O294       Zr295   2.442       .  S
O294        H323   0.990       .  S
Zr295       O298   2.437       .  S
Zr295       O299   2.441       .  S
Zr295       O300   2.419       .  S
O296        C301   1.285       .  A
O297        H314   0.990       .  S
O297        H329   0.990       .  S
O298        H315   0.990       .  S
O299        H319   0.990       .  S
O299        H328   0.990       .  S
O300        C301   1.281       .  A
C301       C2186   1.476       .  S
O302        H321   0.990       .  S
O302        H325   0.990       .  S
O303        H317   0.990   1_565  S
O303        H324   0.990       .  S
O304        C308   1.289       .  A
O305        C308   1.283       .  A
O306        H316   0.990       .  S
O307        H320   0.990       .  S
C308       C2018   1.493       .  S
Zr331       O332   2.438       .  S
Zr331       O333   2.423       .  S
Zr331       O334   2.431       .  S
Zr331       O337   2.427       .  S
Zr331       O339   2.377       .  S
Zr331       O340   2.382       .  S
Zr331       O341   2.403       .  S
Zr331       O342   2.402       .  S
O332        H388   0.990       .  S
O332        H396   0.990       .  S
O333        C353   1.283       .  A
O334        C355   1.284       .  A
O335       Zr345   2.446       .  S
O335        C354   1.287       .  A
O336       Zr344   2.432       .  S
O336        C355   1.285       .  A
O337        C354   1.284       .  A
O338       Zr346   2.440       .  S
O338        C353   1.285       .  A
O339       Zr344   2.389       .  S
O339       Zr346   2.367       .  S
O340       Zr345   2.386       .  S
O340       Zr346   2.376       .  S
O340        H375   0.966       .  S
O341       Zr344   2.397       .  S
O341       Zr361   2.402       .  S
O341        H378   0.966       .  S
O342       Zr345   2.387       .  S
O342       Zr361   2.397       .  S
Zr343       O368   2.441       .  S
Zr343       O362   2.441       .  S
Zr343       O370   2.452       .  S
Zr343       O358   2.437       .  S
Zr343       O349   2.401       .  S
Zr343       O350   2.409       .  S
Zr343       O351   2.378       .  S
Zr343       O352   2.385       .  S
Zr344       O363   2.436       .  S
Zr344       O356   2.431       .  S
Zr344       O357   2.438       .  S
Zr344       O350   2.397       .  S
Zr344       O351   2.388       .  S
Zr345       O347   2.435       .  S
Zr345       O369   2.437       .  S
Zr345       O371   2.425       .  S
Zr345       O349   2.398       .  S
Zr345       O352   2.396       .  S
Zr346       O372   2.437       .  S
Zr346       O373   2.435       .  S
Zr346       O348   2.436       .  S
Zr346       O349   2.396       .  S
Zr346       O350   2.402       .  S
O347        H384   0.990       .  S
O348        H379   0.990       .  S
O348        H393   0.990       .  S
O350        H376   0.966       .  S
O351       Zr361   2.375       .  S
O352       Zr361   2.388       .  S
O352        H377   0.966       .  S
C353       C2402   1.481       .  S
C354       C2081   1.480   1_655  S
C355       C2042   1.479       .  S
O356        H392   0.990       .  S
O357        C359   1.285       .  A
O358        C359   1.285       .  A
C359       C2114   1.487       .  S
O360       Zr361   2.439       .  S
O360        H389   0.990       .  S
Zr361       O364   2.437       .  S
Zr361       O365   2.440       .  S
Zr361       O366   2.419       .  S
O362        C367   1.285       .  A
O363        H380   0.990       .  S
O363        H395   0.990       .  S
O364        H381   0.990       .  S
O365        H385   0.990       .  S
O365        H394   0.990       .  S
O366        C367   1.281       .  A
C367       C2369   1.475       .  S
O368        H387   0.990       .  S
O368        H391   0.990       .  S
O369        H383   0.990       .  S
O369        H390   0.990       .  S
O370        C374   1.287       .  A
O371        C374   1.282       .  A
O372        H382   0.990       .  S
O373        H386   0.990       .  S
C374       C1985   1.478       .  S
Zr397       O398   2.438       .  S
Zr397       O399   2.408       .  S
Zr397       O400   2.434       .  S
Zr397       O403   2.425       .  S
Zr397       O405   2.381       .  S
Zr397       O406   2.386       .  S
Zr397       O407   2.400       .  S
Zr397       O408   2.403       .  S
O398        H454   0.990       .  S
O398        H462   0.990       .  S
O399        C419   1.279       .  A
O400        C421   1.285       .  A
O401       Zr411   2.437       .  S
O401        C420   1.284       .  A
O402       Zr410   2.439       .  S
O402        C421   1.286       .  A
O403        C420   1.284       .  A
O404       Zr412   2.436       .  S
O404        C419   1.286       .  A
O405       Zr410   2.384       .  S
O405       Zr412   2.371       .  S
O406       Zr411   2.385       .  S
O406       Zr412   2.367       .  S
O406        H441   0.965       .  S
O407       Zr410   2.395       .  S
O407       Zr427   2.401   1_455  S
O407        H444   0.966       .  S
O408       Zr411   2.388       .  S
O408       Zr427   2.397   1_455  S
Zr409       O434   2.439       .  S
Zr409       O428   2.438       .  S
Zr409       O436   2.439       .  S
Zr409       O424   2.438       .  S
Zr409       O415   2.398   1_655  S
Zr409       O416   2.411   1_655  S
Zr409       O417   2.381       .  S
Zr409       O418   2.386   1_655  S
Zr410       O429   2.434   1_455  S
Zr410       O422   2.436   1_455  S
Zr410       O423   2.434   1_455  S
Zr410       O416   2.398       .  S
Zr410       O417   2.394   1_455  S
Zr411       O413   2.435       .  S
Zr411       O435   2.439       .  S
Zr411       O437   2.428       .  S
Zr411       O415   2.387       .  S
Zr411       O418   2.387       .  S
Zr412       O438   2.436       .  S
Zr412       O439   2.436       .  S
Zr412       O414   2.435       .  S
Zr412       O415   2.388       .  S
Zr412       O416   2.402       .  S
O413        H450   0.990       .  S
O414        H445   0.990       .  S
O414        H459   0.990       .  S
O416        H442   0.966   1_455  S
O417       Zr427   2.379       .  S
O418       Zr427   2.383   1_455  S
O418        H443   0.966   1_455  S
C419       C1865   1.474       .  S
C420       C1913   1.473       .  S
C421       C1961   1.484       .  S
O422        H458   0.990   1_655  S
O423        C425   1.285       .  A
O424        C425   1.285       .  A
C425       C1937   1.479       .  S
O426       Zr427   2.439   1_455  S
O426        H455   0.990       .  S
Zr427       O430   2.437       .  S
Zr427       O431   2.439       .  S
Zr427       O432   2.430       .  S
O428        C433   1.284       .  A
O429        H446   0.990       .  S
O429        H461   0.990       .  S
O430        H447   0.990       .  S
O431        H451   0.990       .  S
O431        H460   0.990       .  S
O432        C433   1.284       .  A
C433       C1898   1.492       .  S
O434        H453   0.990       .  S
O434        H457   0.990       .  S
O435        H449   0.990       .  S
O435        H456   0.990       .  S
O436        C440   1.287   1_655  A
O437        C440   1.284       .  A
O438        H448   0.990       .  S
O439        H452   0.990       .  S
C440       C1850   1.487       .  S
Zr463       O464   2.437       .  S
Zr463       O465   2.420       .  S
Zr463       O466   2.433       .  S
Zr463       O469   2.425       .  S
Zr463       O471   2.379       .  S
Zr463       O472   2.382       .  S
Zr463       O473   2.402       .  S
Zr463       O474   2.400       .  S
O464        H520   0.990       .  S
O464        H528   0.990       .  S
O465        C485   1.283       .  A
O466        C487   1.285       .  A
O467       Zr477   2.427       .  S
O467        C486   1.284       .  A
O468       Zr476   2.447       .  S
O468        C487   1.287       .  A
O469        C486   1.284       .  A
O470       Zr478   2.430       .  S
O470        C485   1.283       .  A
O471       Zr476   2.384       .  S
O471       Zr478   2.370       .  S
O472       Zr477   2.388       .  S
O472       Zr478   2.379       .  S
O472        H507   0.966       .  S
O473       Zr476   2.397       .  S
O473       Zr493   2.403       .  S
O473        H510   0.966       .  S
O474       Zr477   2.386       .  S
O474       Zr493   2.396       .  S
Zr475       O500   2.439       .  S
Zr475       O494   2.442       .  S
Zr475       O502   2.449       .  S
Zr475       O490   2.437       .  S
Zr475       O481   2.396       .  S
Zr475       O482   2.416       .  S
Zr475       O483   2.379       .  S
Zr475       O484   2.381       .  S
Zr476       O495   2.437       .  S
Zr476       O488   2.436       .  S
Zr476       O489   2.430       .  S
Zr476       O482   2.405       .  S
Zr476       O483   2.395       .  S
Zr477       O479   2.435       .  S
Zr477       O501   2.439       .  S
Zr477       O503   2.423       .  S
Zr477       O481   2.388       .  S
Zr477       O484   2.393       .  S
Zr478       O504   2.435       .  S
Zr478       O505   2.436       .  S
Zr478       O480   2.436       .  S
Zr478       O481   2.391       .  S
Zr478       O482   2.401       .  S
O479        H516   0.990       .  S
O480        H511   0.990       .  S
O480        H525   0.990       .  S
O482        H508   0.966       .  S
O483       Zr493   2.370       .  S
O484       Zr493   2.389       .  S
O484        H509   0.966       .  S
C485       C1778   1.476       .  S
C486       C1817   1.477       .  S
C487       C1970   1.490       .  S
O488        H524   0.990       .  S
O489        C491   1.285       .  A
O490        C491   1.285       .  A
C491       C1802   1.480       .  S
O492       Zr493   2.439       .  S
O492        H521   0.990       .  S
Zr493       O496   2.436       .  S
Zr493       O497   2.440       .  S
Zr493       O498   2.424       .  S
O494        C499   1.285       .  A
O495        H512   0.990       .  S
O495        H527   0.990       .  S
O496        H513   0.990       .  S
O497        H517   0.990       .  S
O497        H526   0.989       .  S
O498        C499   1.282       .  A
C499       C1754   1.483       .  S
O500        H519   0.990       .  S
O500        H523   0.990       .  S
O501        H515   0.990       .  S
O501        H522   0.990       .  S
O502        C506   1.288       .  A
O503        C506   1.282       .  A
O504        H514   0.990       .  S
O505        H518   0.990       .  S
C506       C2234   1.486       .  S
Zr529       O530   2.434       .  S
Zr529       O531   2.424       .  S
Zr529       O532   2.428       .  S
Zr529       O535   2.423       .  S
Zr529       O537   2.377       .  S
Zr529       O538   2.377       .  S
Zr529       O539   2.400       .  S
Zr529       O540   2.395       .  S
O530        H586   0.990       .  S
O530        H594   0.990       .  S
O531        C551   1.283       .  A
O532        C553   1.284       .  A
O533       Zr543   2.434       .  S
O533        C552   1.284       .  A
O534       Zr542   2.437       .  S
O534        C553   1.286       .  A
O535        C552   1.283       .  A
O536       Zr544   2.430       .  S
O536        C551   1.284       .  A
O537       Zr542   2.388       .  S
O537       Zr544   2.368       .  S
O538       Zr543   2.388       .  S
O538       Zr544   2.376       .  S
O538        H573   0.966       .  S
O539       Zr542   2.396       .  S
O539       Zr559   2.395       .  S
O539        H576   0.966       .  S
O540       Zr543   2.383       .  S
O540       Zr559   2.395       .  S
Zr541       O566   2.440       .  S
Zr541       O560   2.441       .  S
Zr541       O568   2.447       .  S
Zr541       O556   2.445       .  S
Zr541       O547   2.394       .  S
Zr541       O548   2.413       .  S
Zr541       O549   2.376       .  S
Zr541       O550   2.386       .  S
Zr542       O561   2.436       .  S
Zr542       O554   2.437       .  S
Zr542       O555   2.428       .  S
Zr542       O548   2.406       .  S
Zr542       O549   2.389       .  S
Zr543       O545   2.435       .  S
Zr543       O567   2.439       .  S
Zr543       O569   2.426       .  S
Zr543       O547   2.388       .  S
Zr543       O550   2.394       .  S
Zr544       O570   2.436       .  S
Zr544       O571   2.436       .  S
Zr544       O546   2.436       .  S
Zr544       O547   2.387       .  S
Zr544       O548   2.405       .  S
O545        H582   0.990       .  S
O546        H577   0.990       .  S
O546        H591   0.990       .  S
O548        H574   0.966       .  S
O549       Zr559   2.370       .  S
O550       Zr559   2.391       .  S
O550        H575   0.966       .  S
C551       C1826   1.479       .  S
C552       C1697   1.476       .  S
C553       C1721   1.480       .  S
O554        H590   0.990       .  S
O555        C557   1.284       .  A
O556        C557   1.285       .  A
C557       C1673   1.486       .  S
O558       Zr559   2.441       .  S
O558        H587   0.990       .  S
Zr559       O562   2.438       .  S
Zr559       O563   2.438       .  S
Zr559       O564   2.421       .  S
O560        C565   1.285       .  A
O561        H578   0.990       .  S
O561        H593   0.990       .  S
O562        H579   0.990       .  S
O563        H583   0.990   1_565  S
O563        H592   0.989   1_565  S
O564        C565   1.282       .  A
C565       C1793   1.479   1_565  S
O566        H585   0.990       .  S
O566        H589   0.990       .  S
O567        H581   0.990       .  S
O567        H588   0.990       .  S
O568        C572   1.288       .  A
O569        C572   1.283       .  A
O570        H580   0.990       .  S
O571        H584   0.990       .  S
C572       C2009   1.488       .  S
Zr595       O596   2.437       .  S
Zr595       O597   2.425       .  S
Zr595       O598   2.430       .  S
Zr595       O601   2.434       .  S
Zr595       O603   2.381       .  S
Zr595       O604   2.383       .  S
Zr595       O605   2.406       .  S
Zr595       O606   2.403       .  S
O596        H652   0.990       .  S
O596        H660   0.990       .  S
O597        C617   1.283       .  A
O598        C619   1.285       .  A
O599       Zr609   2.427       .  S
O599        C618   1.283       .  A
O600       Zr608   2.432       .  S
O600        C619   1.283       .  A
O601        C618   1.285       .  A
O602       Zr610   2.434       .  S
O602        C617   1.285       .  A
O603       Zr608   2.387       .  S
O603       Zr610   2.366       .  S
O604       Zr609   2.387       .  S
O604       Zr610   2.377       .  S
O604        H639   0.966       .  S
O605       Zr608   2.396       .  S
O605       Zr625   2.396       .  S
O605        H642   0.966       .  S
O606       Zr609   2.383       .  S
O606       Zr625   2.396       .  S
Zr607       O632   2.439       .  S
Zr607       O626   2.443       .  S
Zr607       O634   2.446       .  S
Zr607       O622   2.440       .  S
Zr607       O613   2.397       .  S
Zr607       O614   2.413       .  S
Zr607       O615   2.379       .  S
Zr607       O616   2.388       .  S
Zr608       O627   2.437       .  S
Zr608       O620   2.437       .  S
Zr608       O621   2.429       .  S
Zr608       O614   2.399       .  S
Zr608       O615   2.389       .  S
Zr609       O611   2.435       .  S
Zr609       O633   2.440       .  S
Zr609       O635   2.414       .  S
Zr609       O613   2.389       .  S
Zr609       O616   2.389       .  S
Zr610       O636   2.435       .  S
Zr610       O637   2.435       .  S
Zr610       O612   2.436       .  S
Zr610       O613   2.386       .  S
Zr610       O614   2.406       .  S
O611        H648   0.990       .  S
O612        H643   0.990       .  S
O612        H657   0.990       .  S
O614        H640   0.966       .  S
O615       Zr625   2.372       .  S
O616       Zr625   2.388       .  S
O616        H641   0.966       .  S
C617       C1634   1.477       .  S
C618       C1874   1.486       .  S
C619       C1730   1.487       .  S
O620        H656   0.990       .  S
O621        C623   1.284       .  A
O622        C623   1.284       .  A
C623       C1889   1.486       .  S
O624       Zr625   2.439       .  S
O624        H653   0.990       .  S
Zr625       O628   2.436       .  S
Zr625       O629   2.439       .  S
Zr625       O630   2.414       .  S
O626        C631   1.285       .  A
O627        H644   0.990       .  S
O627        H659   0.990       .  S
O628        H645   0.990       .  S
O629        H649   0.990       .  S
O629        H658   0.990       .  S
O630        C631   1.281       .  A
C631       C1649   1.486       .  S
O632        H651   0.990       .  S
O632        H655   0.990       .  S
O633        H647   0.990       .  S
O633        H654   0.990       .  S
O634        C638   1.287       .  A
O635        C638   1.281       .  A
O636        H646   0.990       .  S
O637        H650   0.990       .  S
C638       C1610   1.481       .  S
Zr661       O662   2.438       .  S
Zr661       O663   2.436       .  S
Zr661       O664   2.430       .  S
Zr661       O667   2.414       .  S
Zr661       O669   2.377   1_565  S
Zr661       O670   2.380       .  S
Zr661       O671   2.405   1_565  S
Zr661       O672   2.404   1_565  S
O662        H718   0.990       .  S
O662        H726   0.990       .  S
O663        C683   1.285       .  A
O664        C685   1.285   1_565  A
O665       Zr675   2.447       .  S
O665        C684   1.288       .  A
O666       Zr674   2.434       .  S
O666        C685   1.284       .  A
O667        C684   1.280       .  A
O668       Zr676   2.428   1_565  S
O668        C683   1.283       .  A
O669       Zr674   2.388       .  S
O669       Zr676   2.372       .  S
O670       Zr675   2.386       .  S
O670       Zr676   2.380   1_565  S
O670        H705   0.966       .  S
O671       Zr674   2.390       .  S
O671       Zr691   2.406       .  S
O671        H708   0.966       .  S
O672       Zr675   2.376   1_545  S
O672       Zr691   2.399       .  S
Zr673       O698   2.437       .  S
Zr673       O692   2.439       .  S
Zr673       O700   2.450       .  S
Zr673       O688   2.451       .  S
Zr673       O679   2.395       .  S
Zr673       O680   2.411       .  S
Zr673       O681   2.380       .  S
Zr673       O682   2.389       .  S
Zr674       O693   2.437       .  S
Zr674       O686   2.434       .  S
Zr674       O687   2.413       .  S
Zr674       O680   2.405       .  S
Zr674       O681   2.392       .  S
Zr675       O677   2.434   1_565  S
Zr675       O699   2.439       .  S
Zr675       O701   2.417   1_565  S
Zr675       O679   2.393   1_565  S
Zr675       O682   2.395   1_565  S
Zr676       O702   2.435   1_545  S
Zr676       O703   2.436       .  S
Zr676       O678   2.437       .  S
Zr676       O679   2.383       .  S
Zr676       O680   2.404       .  S
O677        H714   0.990       .  S
O678        H709   0.990   1_545  S
O678        H723   0.990       .  S
O680        H706   0.966       .  S
O681       Zr691   2.372       .  S
O682       Zr691   2.386       .  S
O682        H707   0.966       .  S
C683       C1922   1.481       .  S
C684       C1625   1.491       .  S
C685       C1577   1.489       .  S
O686        H722   0.990       .  S
O687        C689   1.280       .  A
O688        C689   1.286       .  A
C689       C1658   1.487       .  S
O690       Zr691   2.439       .  S
O690        H719   0.990       .  S
Zr691       O694   2.436       .  S
Zr691       O695   2.440       .  S
Zr691       O696   2.433       .  S
O692        C697   1.284       .  A
O693        H710   0.990       .  S
O693        H725   0.990       .  S
O694        H711   0.990       .  S
O695        H715   0.990       .  S
O695        H724   0.989       .  S
O696        C697   1.284       .  A
C697       C1946   1.486       .  S
O698        H717   0.990       .  S
O698        H721   0.990       .  S
O699        H713   0.990       .  S
O699        H720   0.990       .  S
O700        C704   1.287       .  A
O701        C704   1.283       .  A
O702        H712   0.990       .  S
O703        H716   0.990       .  S
C704       C1562   1.487       .  S
Zr727       O728   2.436       .  S
Zr727       O729   2.436       .  S
Zr727       O730   2.432       .  S
Zr727       O733   2.427       .  S
Zr727       O735   2.381       .  S
Zr727       O736   2.379       .  S
Zr727       O737   2.407       .  S
Zr727       O738   2.403       .  S
O728        H784   0.990       .  S
O728        H792   0.990       .  S
O729        C749   1.285       .  A
O730        C751   1.284       .  A
O731       Zr741   2.432       .  S
O731        C750   1.284       .  A
O732       Zr740   2.437       .  S
O732        C751   1.285       .  A
O733        C750   1.283       .  A
O734       Zr742   2.428       .  S
O734        C749   1.283       .  A
O735       Zr740   2.392       .  S
O735       Zr742   2.372       .  S
O736       Zr741   2.382       .  S
O736       Zr742   2.377       .  S
O736        H771   0.966       .  S
O737       Zr740   2.396       .  S
O737       Zr757   2.406       .  S
O737        H774   0.966       .  S
O738       Zr741   2.386       .  S
O738       Zr757   2.400       .  S
Zr739       O764   2.440       .  S
Zr739       O758   2.434       .  S
Zr739       O766   2.447       .  S
Zr739       O754   2.444       .  S
Zr739       O745   2.395       .  S
Zr739       O746   2.413       .  S
Zr739       O747   2.380       .  S
Zr739       O748   2.386       .  S
Zr740       O759   2.438       .  S
Zr740       O752   2.433   1_565  S
Zr740       O753   2.436       .  S
Zr740       O746   2.403       .  S
Zr740       O747   2.392       .  S
Zr741       O743   2.436       .  S
Zr741       O765   2.436       .  S
Zr741       O767   2.407       .  S
Zr741       O745   2.390       .  S
Zr741       O748   2.392       .  S
Zr742       O768   2.435       .  S
Zr742       O769   2.436       .  S
Zr742       O744   2.437       .  S
Zr742       O745   2.387       .  S
Zr742       O746   2.400       .  S
O743        H780   0.990       .  S
O744        H775   0.990       .  S
O744        H789   0.990       .  S
O746        H772   0.966       .  S
O747       Zr757   2.376       .  S
O748       Zr757   2.385       .  S
O748        H773   0.966       .  S
C749       C1706   1.480       .  S
C750       C1769   1.474       .  S
C751       C1586   1.482       .  S
O752        H788   0.990       .  S
O753        C755   1.285       .  A
O754        C755   1.286       .  A
C755       C1745   1.486   1_565  S
O756       Zr757   2.441       .  S
O756        H785   0.990       .  S
Zr757       O760   2.437       .  S
Zr757       O761   2.439       .  S
Zr757       O762   2.431       .  S
O758        C763   1.282       .  A
O759        H776   0.990       .  S
O759        H791   0.990       .  S
O760        H777   0.990       .  S
O761        H781   0.990       .  S
O761        H790   0.989       .  S
O762        C763   1.285       .  A
C763       C1682   1.496       .  S
O764        H783   0.990       .  S
O764        H787   0.990       .  S
O765        H779   0.990       .  S
O765        H786   0.990       .  S
O766        C770   1.286       .  A
O767        C770   1.279       .  A
O768        H778   0.990       .  S
O769        H782   0.990       .  S
C770       C2138   1.467       .  S
Zr793       O794   2.438       .  S
Zr793       O795   2.425       .  S
Zr793       O796   2.434       .  S
Zr793       O799   2.435       .  S
Zr793       O801   2.382       .  S
Zr793       O802   2.384       .  S
Zr793       O803   2.405       .  S
Zr793       O804   2.402       .  S
O794        H850   0.990       .  S
O794        H858   0.990       .  S
O795        C815   1.283       .  A
O796        C817   1.285       .  A
O797       Zr807   2.437       .  S
O797        C816   1.283       .  A
O798       Zr806   2.430       .  S
O798        C817   1.284       .  A
O799        C816   1.285       .  A
O800       Zr808   2.427       .  S
O800        C815   1.283       .  A
O801       Zr806   2.391       .  S
O801       Zr808   2.365       .  S
O802       Zr807   2.389       .  S
O802       Zr808   2.382       .  S
O802        H837   0.966       .  S
O803       Zr806   2.399       .  S
O803       Zr823   2.400       .  S
O803        H840   0.966       .  S
O804       Zr807   2.386       .  S
O804       Zr823   2.397       .  S
Zr805       O830   2.441       .  S
Zr805       O824   2.449       .  S
Zr805       O832   2.456       .  S
Zr805       O820   2.446       .  S
Zr805       O811   2.399       .  S
Zr805       O812   2.418       .  S
Zr805       O813   2.382       .  S
Zr805       O814   2.388       .  S
Zr806       O825   2.435       .  S
Zr806       O818   2.435       .  S
Zr806       O819   2.432       .  S
Zr806       O812   2.404       .  S
Zr806       O813   2.391       .  S
Zr807       O809   2.435       .  S
Zr807       O831   2.441       .  S
Zr807       O833   2.425       .  S
Zr807       O811   2.385       .  S
Zr807       O814   2.392       .  S
Zr808       O834   2.436       .  S
Zr808       O835   2.436       .  S
Zr808       O810   2.434       .  S
Zr808       O811   2.381       .  S
Zr808       O812   2.403       .  S
O809        H846   0.990       .  S
O810        H841   0.990       .  S
O810        H855   0.990       .  S
O812        H838   0.966       .  S
O813       Zr823   2.377       .  S
O814       Zr823   2.389       .  S
O814        H839   0.965       .  S
C815       C1466   1.478       .  S
C816       C1505   1.487       .  S
C817       C1529   1.476       .  S
O818        H854   0.990       .  S
O819        C821   1.284       .  A
O820        C821   1.285       .  A
C821       C1481   1.485       .  S
O822       Zr823   2.440       .  S
O822        H851   0.990       .  S
Zr823       O826   2.438       .  S
Zr823       O827   2.441       .  S
Zr823       O828   2.414       .  S
O824        C829   1.285       .  A
O825        H842   0.990       .  S
O825        H857   0.990       .  S
O826        H843   0.990       .  S
O827        H847   0.990   1_655  S
O827        H856   0.989       .  S
O828        C829   1.281       .  A
C829       C1442   1.491   1_655  S
O830        H849   0.990       .  S
O830        H853   0.990       .  S
O831        H845   0.990       .  S
O831        H852   0.990       .  S
O832        C836   1.289       .  A
O833        C836   1.283       .  A
O834        H844   0.990       .  S
O835        H848   0.990       .  S
C836       C1994   1.485       .  S
Zr859       O860   2.437       .  S
Zr859       O861   2.423       .  S
Zr859       O862   2.436       .  S
Zr859       O865   2.435       .  S
Zr859       O867   2.380       .  S
Zr859       O868   2.384       .  S
Zr859       O869   2.406       .  S
Zr859       O870   2.400       .  S
O860        H916   0.990       .  S
O860        H924   0.990       .  S
O861        C881   1.282       .  A
O862        C883   1.285       .  A
O863       Zr873   2.436       .  S
O863        C882   1.286       .  A
O864       Zr872   2.432       .  S
O864        C883   1.285       .  A
O865        C882   1.285       .  A
O866       Zr874   2.429       .  S
O866        C881   1.284       .  A
O867       Zr872   2.388       .  S
O867       Zr874   2.364       .  S
O868       Zr873   2.385       .  S
O868       Zr874   2.376       .  S
O868        H903   0.966       .  S
O869       Zr872   2.395       .  S
O869       Zr889   2.401       .  S
O869        H906   0.966       .  S
O870       Zr873   2.385       .  S
O870       Zr889   2.392       .  S
Zr871       O896   2.441       .  S
Zr871       O890   2.453       .  S
Zr871       O898   2.447       .  S
Zr871       O886   2.442       .  S
Zr871       O877   2.399       .  S
Zr871       O878   2.417       .  S
Zr871       O879   2.379       .  S
Zr871       O880   2.388       .  S
Zr872       O891   2.435       .  S
Zr872       O884   2.437       .  S
Zr872       O885   2.424       .  S
Zr872       O878   2.401       .  S
Zr872       O879   2.392       .  S
Zr873       O875   2.435       .  S
Zr873       O897   2.438       .  S
Zr873       O899   2.422       .  S
Zr873       O877   2.384       .  S
Zr873       O880   2.396       .  S
Zr874       O900   2.435       .  S
Zr874       O901   2.434       .  S
Zr874       O876   2.435       .  S
Zr874       O877   2.386       .  S
Zr874       O878   2.402       .  S
O875        H912   0.990       .  S
O876        H907   0.990       .  S
O876        H921   0.990       .  S
O878        H904   0.966       .  S
O879       Zr889   2.381       .  S
O880       Zr889   2.392       .  S
O880        H905   0.966       .  S
C881       C1337   1.480       .  S
C882       C1385   1.485       .  S
C883       C1538   1.488       .  S
O884        H920   0.990       .  S
O885        C887   1.283       .  A
O886        C887   1.284       .  A
C887       C1409   1.482       .  S
O888       Zr889   2.439       .  S
O888        H917   0.990       .  S
Zr889       O892   2.437       .  S
Zr889       O893   2.436       .  S
Zr889       O894   2.424       .  S
O890        C895   1.287       .  A
O891        H908   0.990       .  S
O891        H923   0.990       .  S
O892        H909   0.990       .  S
O893        H913   0.990       .  S
O893        H922   0.989       .  S
O894        C895   1.282       .  A
C895       C1370   1.487       .  S
O896        H915   0.990       .  S
O896        H919   0.990       .  S
O897        H911   0.990       .  S
O897        H918   0.990       .  S
O898        C902   1.287       .  A
O899        C902   1.281       .  A
O900        H910   0.990       .  S
O901        H914   0.990       .  S
C902       C1601   1.491       .  S
Zr925       O926   2.437       .  S
Zr925       O927   2.429       .  S
Zr925       O928   2.436       .  S
Zr925       O931   2.422       .  S
Zr925       O933   2.376       .  S
Zr925       O934   2.382       .  S
Zr925       O935   2.405       .  S
Zr925       O936   2.406       .  S
O926        H982   0.990       .  S
O926        H990   0.990       .  S
O927        C947   1.284       .  A
O928        C949   1.285       .  A
O929       Zr939   2.434       .  S
O929        C948   1.284       .  A
O930       Zr938   2.432       .  S
O930        C949   1.284       .  A
O931        C948   1.283       .  A
O932       Zr940   2.443       .  S
O932        C947   1.286       .  A
O933       Zr938   2.387       .  S
O933       Zr940   2.368       .  S
O934       Zr939   2.380       .  S
O934       Zr940   2.373       .  S
O934        H969   0.965       .  S
O935       Zr938   2.396       .  S
O935       Zr955   2.409       .  S
O935        H972   0.966       .  S
O936       Zr939   2.387       .  S
O936       Zr955   2.401       .  S
Zr937       O962   2.449       .  S
Zr937       O956   2.440       .  S
Zr937       O964   2.446       .  S
Zr937       O952   2.431       .  S
Zr937       O943   2.398       .  S
Zr937       O944   2.412       .  S
Zr937       O945   2.378       .  S
Zr937       O946   2.385       .  S
Zr938       O957   2.437       .  S
Zr938       O950   2.434       .  S
Zr938       O951   2.429       .  S
Zr938       O944   2.395       .  S
Zr938       O945   2.387       .  S
Zr939       O941   2.433       .  S
Zr939       O963   2.437       .  S
Zr939       O965   2.416       .  S
Zr939       O943   2.391       .  S
Zr939       O946   2.389       .  S
Zr940       O966   2.433       .  S
Zr940       O967   2.436       .  S
Zr940       O942   2.437       .  S
Zr940       O943   2.390       .  S
Zr940       O944   2.405       .  S
O941        H978   0.990       .  S
O942        H973   0.990       .  S
O942        H987   0.990       .  S
O944        H970   0.966       .  S
O945       Zr955   2.370       .  S
O946       Zr955   2.384       .  S
O946        H971   0.966       .  S
C947       C1298   1.488       .  S
C948       C1457   1.472       .  S
C949       C1313   1.478       .  S
O950        H986   0.990       .  S
O951        C953   1.285       .  A
O952        C953   1.284       .  A
C953       C1433   1.480       .  S
O954       Zr955   2.441       .  S
O954        H983   0.990       .  S
Zr955       O958   2.438       .  S
Zr955       O959   2.441       .  S
Zr955       O960   2.435       .  S
O956        C961   1.286       .  A
O957        H974   0.990       .  S
O957        H989   0.990       .  S
O958        H975   0.990       .  S
O959        H979   0.990       .  S
O959        H988   0.989       .  S
O960        C961   1.285       .  A
C961       C1274   1.487       .  S
O962        H981   0.990       .  S
O962        H985   0.990       .  S
O963        H977   0.990       .  S
O963        H984   0.990       .  S
O964        C968   1.285       .  A
O965        C968   1.281       .  A
O966        H976   0.990       .  S
O967        H980   0.990       .  S
C968       C2066   1.470       .  S
Zr991       O992   2.437       .  S
Zr991       O993   2.422       .  S
Zr991       O994   2.433       .  S
Zr991       O997   2.426       .  S
Zr991       O999   2.379       .  S
Zr991      O1000   2.382       .  S
Zr991      O1001   2.404       .  S
Zr991      O1002   2.401       .  S
O992       H1048   0.990       .  S
O992       H1056   0.990       .  S
O993       C1013   1.282       .  A
O994       C1015   1.285       .  A
O995      Zr1005   2.423       .  S
O995       C1014   1.283       .  A
O996      Zr1004   2.433   1_545  S
O996       C1015   1.285       .  A
O997       C1014   1.284       .  A
O998      Zr1006   2.434       .  S
O998       C1013   1.285       .  A
O999      Zr1004   2.386   1_545  S
O999      Zr1006   2.366       .  S
O1000     Zr1005   2.380       .  S
O1000     Zr1006   2.373       .  S
O1000      H1035   0.966       .  S
O1001     Zr1004   2.394   1_545  S
O1001     Zr1021   2.404   1_545  S
O1001      H1038   0.966       .  S
O1002     Zr1005   2.389       .  S
O1002     Zr1021   2.395   1_545  S
Zr1003     O1028   2.446       .  S
Zr1003     O1022   2.438       .  S
Zr1003     O1030   2.438       .  S
Zr1003     O1018   2.430       .  S
Zr1003     O1009   2.400   1_565  S
Zr1003     O1010   2.409   1_565  S
Zr1003     O1011   2.379       .  S
Zr1003     O1012   2.383   1_565  S
Zr1004     O1023   2.434       .  S
Zr1004     O1016   2.435       .  S
Zr1004     O1017   2.430       .  S
Zr1004     O1010   2.396   1_565  S
Zr1004     O1011   2.386       .  S
Zr1005     O1007   2.435       .  S
Zr1005     O1029   2.439       .  S
Zr1005     O1031   2.417       .  S
Zr1005     O1009   2.390       .  S
Zr1005     O1012   2.382       .  S
Zr1006     O1032   2.434       .  S
Zr1006     O1033   2.435       .  S
Zr1006     O1008   2.437       .  S
Zr1006     O1009   2.395       .  S
Zr1006     O1010   2.400       .  S
O1007      H1044   0.990       .  S
O1008      H1039   0.990       .  S
O1008      H1053   0.990       .  S
O1010      H1036   0.966   1_545  S
O1011     Zr1021   2.372       .  S
O1012     Zr1021   2.382   1_545  S
O1012      H1037   0.966   1_545  S
C1013      C1394   1.486       .  S
C1014      C1241   1.474       .  S
C1015      C1322   1.480       .  S
O1016      H1052   0.990   1_565  S
O1017      C1019   1.285       .  A
O1018      C1019   1.285       .  A
C1019      C1226   1.483       .  S
O1020     Zr1021   2.439   1_545  S
O1020      H1049   0.990   1_545  S
Zr1021     O1024   2.437       .  S
Zr1021     O1025   2.437   1_565  S
Zr1021     O1026   2.429       .  S
O1022      C1027   1.286       .  A
O1023      H1040   0.989       .  S
O1023      H1055   0.990       .  S
O1024      H1041   0.990       .  S
O1025      H1045   0.990   1_545  S
O1025      H1054   0.989       .  S
O1026      C1027   1.284       .  A
C1027      C1418   1.479       .  S
O1028      H1047   0.990       .  S
O1028      H1051   0.990       .  S
O1029      H1043   0.990       .  S
O1029      H1050   0.990       .  S
O1030      C1034   1.286   1_565  A
O1031      C1034   1.282       .  A
O1032      H1042   0.990       .  S
O1033      H1046   0.990       .  S
C1034      C1553   1.481       .  S
Zr1057     O1058   2.434       .  S
Zr1057     O1059   2.427       .  S
Zr1057     O1060   2.430       .  S
Zr1057     O1063   2.424       .  S
Zr1057     O1065   2.377       .  S
Zr1057     O1066   2.385       .  S
Zr1057     O1067   2.402   1_655  S
Zr1057     O1068   2.399       .  S
O1058      H1114   0.990       .  S
O1058      H1122   0.990       .  S
O1059      C1079   1.283       .  A
O1060      C1081   1.284       .  A
O1061     Zr1071   2.428       .  S
O1061      C1080   1.285       .  A
O1062     Zr1070   2.439       .  S
O1062      C1081   1.286   1_455  A
O1063      C1080   1.283       .  A
O1064     Zr1072   2.427       .  S
O1064      C1079   1.284       .  A
O1065     Zr1070   2.385   1_655  S
O1065     Zr1072   2.371       .  S
O1066     Zr1071   2.386       .  S
O1066     Zr1072   2.377       .  S
O1066      H1101   0.966       .  S
O1067     Zr1070   2.395       .  S
O1067     Zr1087   2.402       .  S
O1067      H1104   0.966       .  S
O1068     Zr1071   2.382       .  S
O1068     Zr1087   2.394   1_655  S
Zr1069     O1094   2.443       .  S
Zr1069     O1088   2.429       .  S
Zr1069     O1096   2.450       .  S
Zr1069     O1084   2.444       .  S
Zr1069     O1075   2.398       .  S
Zr1069     O1076   2.406       .  S
Zr1069     O1077   2.380       .  S
Zr1069     O1078   2.385       .  S
Zr1070     O1089   2.438       .  S
Zr1070     O1082   2.434       .  S
Zr1070     O1083   2.428       .  S
Zr1070     O1076   2.395       .  S
Zr1070     O1077   2.384       .  S
Zr1071     O1073   2.433       .  S
Zr1071     O1095   2.438       .  S
Zr1071     O1097   2.425   1_655  S
Zr1071     O1075   2.391   1_655  S
Zr1071     O1078   2.382   1_655  S
Zr1072     O1098   2.434       .  S
Zr1072     O1099   2.435   1_655  S
Zr1072     O1074   2.438       .  S
Zr1072     O1075   2.392   1_655  S
Zr1072     O1076   2.396   1_655  S
O1073      H1110   0.990       .  S
O1074      H1105   0.990       .  S
O1074      H1119   0.990       .  S
O1076      H1102   0.966       .  S
O1077     Zr1087   2.369       .  S
O1078     Zr1087   2.383       .  S
O1078      H1103   0.966       .  S
C1079      C1250   1.482       .  S
C1080      C1346   1.480       .  S
C1081      C1193   1.479       .  S
O1082      H1118   0.990       .  S
O1083      C1085   1.286       .  A
O1084      C1085   1.286       .  A
C1085      C1361   1.493       .  S
O1086     Zr1087   2.440       .  S
O1086      H1115   0.990       .  S
Zr1087     O1090   2.437       .  S
Zr1087     O1091   2.440       .  S
Zr1087     O1092   2.422       .  S
O1088      C1093   1.284       .  A
O1089      H1106   0.990       .  S
O1089      H1121   0.990       .  S
O1090      H1107   0.990       .  S
O1091      H1111   0.990       .  S
O1091      H1120   0.990       .  S
O1092      C1093   1.283       .  A
C1093      C1217   1.477       .  S
O1094      H1113   0.989       .  S
O1094      H1117   0.990       .  S
O1095      H1109   0.990       .  S
O1095      H1116   0.990       .  S
O1096      C1100   1.287       .  A
O1097      C1100   1.285       .  A
O1098      H1108   0.990       .  S
O1099      H1112   0.990       .  S
C1100      C1841   1.502       .  S
Zr1123     O1124   2.438       .  S
Zr1123     O1125   2.433       .  S
Zr1123     O1126   2.428       .  S
Zr1123     O1129   2.421       .  S
Zr1123     O1131   2.379       .  S
Zr1123     O1132   2.378       .  S
Zr1123     O1133   2.404       .  S
Zr1123     O1134   2.403       .  S
O1124      H1180   0.991       .  S
O1124      H1188   0.990       .  S
O1125      C1145   1.283       .  A
O1126      C1147   1.285       .  A
O1127     Zr1137   2.439       .  S
O1127      C1146   1.285       .  A
O1128     Zr1136   2.430       .  S
O1128      C1147   1.283       .  A
O1129      C1146   1.282       .  A
O1130     Zr1138   2.432       .  S
O1130      C1145   1.285       .  A
O1131     Zr1136   2.392       .  S
O1131     Zr1138   2.368       .  S
O1132     Zr1137   2.390       .  S
O1132     Zr1138   2.376       .  S
O1132      H1167   0.966       .  S
O1133     Zr1136   2.396       .  S
O1133     Zr1153   2.398       .  S
O1133      H1170   0.966       .  S
O1134     Zr1137   2.386       .  S
O1134     Zr1153   2.394       .  S
Zr1135     O1160   2.444       .  S
Zr1135     O1154   2.451       .  S
Zr1135     O1162   2.453       .  S
Zr1135     O1150   2.441       .  S
Zr1135     O1141   2.399       .  S
Zr1135     O1142   2.413       .  S
Zr1135     O1143   2.380       .  S
Zr1135     O1144   2.392       .  S
Zr1136     O1155   2.434       .  S
Zr1136     O1148   2.435       .  S
Zr1136     O1149   2.436       .  S
Zr1136     O1142   2.394       .  S
Zr1136     O1143   2.386       .  S
Zr1137     O1139   2.436       .  S
Zr1137     O1161   2.437       .  S
Zr1137     O1163   2.425       .  S
Zr1137     O1141   2.390       .  S
Zr1137     O1144   2.395       .  S
Zr1138     O1164   2.437       .  S
Zr1138     O1165   2.436       .  S
Zr1138     O1140   2.434       .  S
Zr1138     O1141   2.385       .  S
Zr1138     O1142   2.408       .  S
O1139      H1176   0.990       .  S
O1140      H1171   0.990       .  S
O1140      H1185   0.990       .  S
O1142      H1168   0.966       .  S
O1143     Zr1153   2.377       .  S
O1144     Zr1153   2.392       .  S
O1144      H1169   0.966       .  S
C1145      C1514   1.487       .  S
C1146      C1289   1.482       .  S
C1147      C1202   1.487       .  S
O1148      H1184   0.990   1_655  S
O1149      C1151   1.285       .  A
O1150      C1151   1.285       .  A
C1151      C1265   1.487   1_655  S
O1152     Zr1153   2.441       .  S
O1152      H1181   0.990       .  S
Zr1153     O1156   2.437       .  S
Zr1153     O1157   2.439       .  S
Zr1153     O1158   2.419       .  S
O1154      C1159   1.287       .  A
O1155      H1172   0.990       .  S
O1155      H1187   0.990       .  S
O1156      H1173   0.990       .  S
O1157      H1177   0.990       .  S
O1157      H1186   0.989       .  S
O1158      C1159   1.282       .  A
C1159      C1490   1.483       .  S
O1160      H1179   0.990       .  S
O1160      H1183   0.991       .  S
O1161      H1175   0.990       .  S
O1161      H1182   0.990       .  S
O1162      C1166   1.286       .  A
O1163      C1166   1.283       .  A
O1164      H1174   0.990       .  S
O1165      H1178   0.990       .  S
C1166      C2345   1.481       .  S
C1189      C1190   1.401       .  A
C1189      C1194   1.398       .  A
C1189      H1199   1.084       .  S
C1190      C1195   1.479       .  S
C1190      C1191   1.412       .  A
C1191      C1192   1.402       .  A
C1191      S1196   1.806       .  S
C1192      C1193   1.405       .  A
C1192      H1197   1.084       .  S
C1193      C1194   1.414       .  A
C1194      S1198   1.802       .  S
C1195      C1200   1.407       .  A
C1195      C1204   1.400       .  A
S1196      H1212   1.404       .  S
S1198      H1209   1.407       .  S
C1200      C1201   1.402       .  A
C1200      S1205   1.806       .  S
C1201      C1202   1.408       .  A
C1201      H1206   1.082       .  S
C1202      C1203   1.419       .  A
C1203      C1204   1.400       .  A
C1203      S1207   1.800   1_655  S
C1204      H1208   1.084   1_655  S
S1205      H1210   1.407       .  S
S1207      H1211   1.407   1_455  S
C1213      C1214   1.401       .  A
C1213      C1218   1.397       .  A
C1213      H1223   1.084       .  S
C1214      C1219   1.476       .  S
C1214      C1215   1.412       .  A
C1215      C1216   1.398       .  A
C1215      S1220   1.805       .  S
C1216      C1217   1.405       .  A
C1216      H1221   1.084       .  S
C1217      C1218   1.414       .  A
C1218      S1222   1.800       .  S
C1219      C1224   1.407       .  A
C1219      C1228   1.400       .  A
S1220      H1236   1.405       .  S
S1222      H1233   1.407       .  S
C1224      C1225   1.402       .  A
C1224      S1229   1.806       .  S
C1225      C1226   1.407       .  A
C1225      H1230   1.082       .  S
C1226      C1227   1.416       .  A
C1227      C1228   1.398       .  A
C1227      S1231   1.802       .  S
C1228      H1232   1.084       .  S
S1229      H1234   1.407       .  S
S1231      H1235   1.407       .  S
C1237      C1238   1.402       .  A
C1237      C1242   1.400       .  A
C1237      H1247   1.084       .  S
C1238      C1243   1.475       .  S
C1238      C1239   1.410       .  A
C1239      C1240   1.396       .  A
C1239      S1244   1.804       .  S
C1240      C1241   1.404       .  A
C1240      H1245   1.084       .  S
C1241      C1242   1.414       .  A
C1242      S1246   1.803       .  S
C1243      C1248   1.407       .  A
C1243      C1252   1.400       .  A
S1244      H1260   1.405       .  S
S1246      H1257   1.407       .  S
C1248      C1249   1.401       .  A
C1248      S1253   1.807       .  S
C1249      C1250   1.407       .  A
C1249      H1254   1.083       .  S
C1250      C1251   1.418       .  A
C1251      C1252   1.399       .  A
C1251      S1255   1.804       .  S
C1252      H1256   1.084       .  S
S1253      H1258   1.407       .  S
S1255      H1259   1.408       .  S
C1261      C1262   1.402       .  A
C1261      C1266   1.401       .  A
C1261      H1271   1.084       .  S
C1262      C1267   1.484       .  S
C1262      C1263   1.414       .  A
C1263      C1264   1.405       .  A
C1263      S1268   1.808       .  S
C1264      C1265   1.407       .  A
C1264      H1269   1.084       .  S
C1265      C1266   1.415       .  A
C1266      S1270   1.803       .  S
C1267      C1272   1.408       .  A
C1267      C1276   1.401       .  A
S1268      H1284   1.402       .  S
S1270      H1281   1.407   1_455  S
C1272      C1273   1.406       .  A
C1272      S1277   1.806       .  S
C1273      C1274   1.407       .  A
C1273      H1278   1.083       .  S
C1274      C1275   1.418       .  A
C1275      C1276   1.402       .  A
C1275      S1279   1.802       .  S
C1276      H1280   1.084       .  S
S1277      H1282   1.407       .  S
S1279      H1283   1.407       .  S
C1285      C1286   1.402       .  A
C1285      C1290   1.401       .  A
C1285      H1295   1.084       .  S
C1286      C1291   1.482       .  S
C1286      C1287   1.412       .  A
C1287      C1288   1.398       .  A
C1287      S1292   1.805       .  S
C1288      C1289   1.405       .  A
C1288      H1293   1.084       .  S
C1289      C1290   1.418       .  A
C1290      S1294   1.804       .  S
C1291      C1296   1.409       .  A
C1291      C1300   1.400       .  A
S1292      H1308   1.406       .  S
S1294      H1305   1.408       .  S
C1296      C1297   1.405       .  A
C1296      S1301   1.806       .  S
C1297      C1298   1.409       .  A
C1297      H1302   1.081       .  S
C1298      C1299   1.417       .  A
C1299      C1300   1.397       .  A
C1299      S1303   1.802       .  S
C1300      H1304   1.084       .  S
S1301      H1306   1.407       .  S
S1303      H1307   1.407       .  S
C1309      C1310   1.401       .  A
C1309      C1314   1.399       .  A
C1309      H1319   1.084       .  S
C1310      C1315   1.482       .  S
C1310      C1311   1.414       .  A
C1311      C1312   1.403       .  A
C1311      S1316   1.803       .  S
C1312      C1313   1.404       .  A
C1312      H1317   1.084       .  S
C1313      C1314   1.413       .  A
C1314      S1318   1.801       .  S
C1315      C1320   1.410       .  A
C1315      C1324   1.401       .  A
S1316      H1332   1.405       .  S
S1318      H1329   1.407       .  S
C1320      C1321   1.404       .  A
C1320      S1325   1.806       .  S
C1321      C1322   1.405       .  A
C1321      H1326   1.083       .  S
C1322      C1323   1.416       .  A
C1323      C1324   1.400       .  A
C1323      S1327   1.803       .  S
C1324      H1328   1.084       .  S
S1325      H1330   1.407   1_545  S
S1327      H1331   1.407       .  S
C1333      C1334   1.401       .  A
C1333      C1338   1.400       .  A
C1333      H1343   1.084       .  S
C1334      C1339   1.475       .  S
C1334      C1335   1.410       .  A
C1335      C1336   1.397       .  A
C1335      S1340   1.805       .  S
C1336      C1337   1.405       .  A
C1336      H1341   1.084       .  S
C1337      C1338   1.416       .  A
C1338      S1342   1.800       .  S
C1339      C1344   1.406       .  A
C1339      C1348   1.401       .  A
S1340      H1356   1.406       .  S
S1342      H1353   1.407       .  S
C1344      C1345   1.397       .  A
C1344      S1349   1.807       .  S
C1345      C1346   1.405       .  A
C1345      H1350   1.083       .  S
C1346      C1347   1.416       .  A
C1347      C1348   1.404       .  A
C1347      S1351   1.806       .  S
C1348      H1352   1.083       .  S
S1349      H1354   1.407       .  S
S1351      H1355   1.407       .  S
C1357      C1358   1.403       .  A
C1357      C1362   1.404       .  A
C1357      H1367   1.084       .  S
C1358      C1363   1.485       .  S
C1358      C1359   1.410       .  A
C1359      C1360   1.398       .  A
C1359      S1364   1.802       .  S
C1360      C1361   1.408       .  A
C1360      H1365   1.084       .  S
C1361      C1362   1.419       .  A
C1362      S1366   1.798       .  S
C1363      C1368   1.410       .  A
C1363      C1372   1.401       .  A
S1364      H1380   1.406       .  S
S1366      H1377   1.405       .  S
C1368      C1369   1.407       .  A
C1368      S1373   1.806       .  S
C1369      C1370   1.407       .  A
C1369      H1374   1.083       .  S
C1370      C1371   1.416       .  A
C1371      C1372   1.401       .  A
C1371      S1375   1.801       .  S
C1372      H1376   1.084       .  S
S1373      H1378   1.407       .  S
S1375      H1379   1.407       .  S
C1381      C1382   1.402       .  A
C1381      C1386   1.403       .  A
C1381      H1391   1.084       .  S
C1382      C1387   1.481       .  S
C1382      C1383   1.411       .  A
C1383      C1384   1.398       .  A
C1383      S1388   1.806       .  S
C1384      C1385   1.406       .  A
C1384      H1389   1.084       .  S
C1385      C1386   1.417       .  A
C1386      S1390   1.802       .  S
C1387      C1392   1.408       .  A
C1387      C1396   1.401       .  A
S1388      H1404   1.405       .  S
S1390      H1401   1.406       .  S
C1392      C1393   1.401       .  A
C1392      S1397   1.806       .  S
C1393      C1394   1.406       .  A
C1393      H1398   1.083       .  S
C1394      C1395   1.419       .  A
C1395      C1396   1.402       .  A
C1395      S1399   1.803       .  S
C1396      H1400   1.084       .  S
S1397      H1402   1.407       .  S
S1399      H1403   1.408       .  S
C1405      C1406   1.401       .  A
C1405      C1410   1.404       .  A
C1405      H1415   1.083       .  S
C1406      C1411   1.477       .  S
C1406      C1407   1.413       .  A
C1407      C1408   1.399       .  A
C1407      S1412   1.809       .  S
C1408      C1409   1.405       .  A
C1408      H1413   1.084       .  S
C1409      C1410   1.414       .  A
C1410      S1414   1.806       .  S
C1411      C1416   1.408       .  A
C1411      C1420   1.400       .  A
S1412      H1428   1.402       .  S
S1414      H1425   1.407       .  S
C1416      C1417   1.404       .  A
C1416      S1421   1.806       .  S
C1417      C1418   1.406       .  A
C1417      H1422   1.083       .  S
C1418      C1419   1.415       .  A
C1419      C1420   1.399       .  A
C1419      S1423   1.803       .  S
C1420      H1424   1.084       .  S
S1421      H1426   1.407       .  S
S1423      H1427   1.407       .  S
C1429      C1430   1.403       .  A
C1429      C1434   1.398   1_565  A
C1429      H1439   1.084       .  S
C1430      C1435   1.482       .  S
C1430      C1431   1.411       .  A
C1431      C1432   1.400   1_565  A
C1431      S1436   1.803       .  S
C1432      C1433   1.406       .  A
C1432      H1437   1.084       .  S
C1433      C1434   1.415       .  A
C1434      S1438   1.803       .  S
C1435      C1440   1.408       .  A
C1435      C1444   1.402       .  A
S1436      H1452   1.407       .  S
S1438      H1449   1.407       .  S
C1440      C1441   1.400       .  A
C1440      S1445   1.809       .  S
C1441      C1442   1.410       .  A
C1441      H1446   1.083       .  S
C1442      C1443   1.418       .  A
C1443      C1444   1.401       .  A
C1443      S1447   1.797   1_455  S
C1444      H1448   1.084       .  S
S1445      H1450   1.407       .  S
S1447      H1451   1.407       .  S
C1453      C1454   1.401       .  A
C1453      C1458   1.398       .  A
C1453      H1463   1.084       .  S
C1454      C1459   1.477       .  S
C1454      C1455   1.411       .  A
C1455      C1456   1.399       .  A
C1455      S1460   1.803       .  S
C1456      C1457   1.403       .  A
C1456      H1461   1.084       .  S
C1457      C1458   1.414       .  A
C1458      S1462   1.804       .  S
C1459      C1464   1.408       .  A
C1459      C1468   1.400       .  A
S1460      H1476   1.406       .  S
S1462      H1473   1.406       .  S
C1464      C1465   1.402       .  A
C1464      S1469   1.806       .  S
C1465      C1466   1.405       .  A
C1465      H1470   1.083       .  S
C1466      C1467   1.414       .  A
C1467      C1468   1.401       .  A
C1467      S1471   1.807       .  S
C1468      H1472   1.083       .  S
S1469      H1474   1.406       .  S
S1471      H1475   1.407       .  S
C1477      C1478   1.403       .  A
C1477      C1482   1.404       .  A
C1477      H1487   1.084       .  S
C1478      C1483   1.484       .  S
C1478      C1479   1.412       .  A
C1479      C1480   1.400       .  A
C1479      S1484   1.804       .  S
C1480      C1481   1.404       .  A
C1480      H1485   1.083       .  S
C1481      C1482   1.416       .  A
C1482      S1486   1.802       .  S
C1483      C1488   1.410       .  A
C1483      C1492   1.400       .  A
S1484      H1500   1.405       .  S
S1486      H1497   1.407       .  S
C1488      C1489   1.407   1_565  A
C1488      S1493   1.804       .  S
C1489      C1490   1.406       .  A
C1489      H1494   1.083       .  S
C1490      C1491   1.417       .  A
C1491      C1492   1.399   1_545  A
C1491      S1495   1.804       .  S
C1492      H1496   1.084       .  S
S1493      H1498   1.407       .  S
S1495      H1499   1.407       .  S
C1501      C1502   1.401       .  A
C1501      C1506   1.399       .  A
C1501      H1511   1.084       .  S
C1502      C1507   1.484       .  S
C1502      C1503   1.413       .  A
C1503      C1504   1.404       .  A
C1503      S1508   1.804       .  S
C1504      C1505   1.407       .  A
C1504      H1509   1.084       .  S
C1505      C1506   1.418       .  A
C1506      S1510   1.803       .  S
C1507      C1512   1.408       .  A
C1507      C1516   1.404       .  A
S1508      H1524   1.405       .  S
S1510      H1521   1.407       .  S
C1512      C1513   1.401       .  A
C1512      S1517   1.807       .  S
C1513      C1514   1.406       .  A
C1513      H1518   1.083       .  S
C1514      C1515   1.418       .  A
C1515      C1516   1.405       .  A
C1515      S1519   1.804       .  S
C1516      H1520   1.084       .  S
S1517      H1522   1.407       .  S
S1519      H1523   1.407       .  S
C1525      C1526   1.401       .  A
C1525      C1530   1.398       .  A
C1525      H1535   1.084       .  S
C1526      C1531   1.481       .  S
C1526      C1527   1.414       .  A
C1527      C1528   1.402       .  A
C1527      S1532   1.805       .  S
C1528      C1529   1.405       .  A
C1528      H1533   1.084       .  S
C1529      C1530   1.413       .  A
C1530      S1534   1.804       .  S
C1531      C1536   1.408       .  A
C1531      C1540   1.400       .  A
S1532      H1548   1.405       .  S
S1534      H1545   1.407       .  S
C1536      C1537   1.405       .  A
C1536      S1541   1.806       .  S
C1537      C1538   1.409       .  A
C1537      H1542   1.082       .  S
C1538      C1539   1.418       .  A
C1539      C1540   1.398       .  A
C1539      S1543   1.803       .  S
C1540      H1544   1.084       .  S
S1541      H1546   1.407       .  S
S1543      H1547   1.407       .  S
C1549      C1550   1.403       .  A
C1549      C1554   1.400       .  A
C1549      H1559   1.084       .  S
C1550      C1555   1.483   1_556  S
C1550      C1551   1.413   1_545  A
C1551      C1552   1.397       .  A
C1551      S1556   1.804       .  S
C1552      C1553   1.404   1_565  A
C1552      H1557   1.083       .  S
C1553      C1554   1.416       .  A
C1554      S1558   1.803       .  S
C1555      C1560   1.408       .  A
C1555      C1564   1.402       .  A
S1556      H1572   1.407   1_556  S
S1558      H1569   1.408       .  S
C1560      C1561   1.402       .  A
C1560      S1565   1.807   1_545  S
C1561      C1562   1.409       .  A
C1561      H1566   1.083       .  S
C1562      C1563   1.417       .  A
C1563      C1564   1.402       .  A
C1563      S1567   1.807       .  S
C1564      H1568   1.083       .  S
S1565      H1570   1.407       .  S
S1567      H1571   1.407       .  S
C1573      C1574   1.400   1_545  A
C1573      C1578   1.399       .  A
C1573      H1583   1.084       .  S
C1574      C1579   1.481       .  S
C1574      C1575   1.411       .  A
C1575      C1576   1.400       .  A
C1575      S1580   1.805       .  S
C1576      C1577   1.408   1_565  A
C1576      H1581   1.084       .  S
C1577      C1578   1.419       .  A
C1578      S1582   1.801       .  S
C1579      C1584   1.410       .  A
C1579      C1588   1.401       .  A
S1580      H1596   1.406       .  S
S1582      H1593   1.408       .  S
C1584      C1585   1.405       .  A
C1584      S1589   1.806   1_565  S
C1585      C1586   1.407       .  A
C1585      H1590   1.083       .  S
C1586      C1587   1.415       .  A
C1587      C1588   1.397       .  A
C1587      S1591   1.801       .  S
C1588      H1592   1.084       .  S
S1589      H1594   1.407       .  S
S1591      H1595   1.407       .  S
C1597      C1598   1.401       .  A
C1597      C1602   1.399       .  A
C1597      H1607   1.084       .  S
C1598      C1603   1.482   1_556  S
C1598      C1599   1.411       .  A
C1599      C1600   1.399       .  A
C1599      S1604   1.804       .  S
C1600      C1601   1.408       .  A
C1600      H1605   1.083       .  S
C1601      C1602   1.420       .  A
C1602      S1606   1.802       .  S
C1603      C1608   1.409       .  A
C1603      C1612   1.402       .  A
S1604      H1620   1.407   1_556  S
S1606      H1617   1.407       .  S
C1608      C1609   1.402       .  A
C1608      S1613   1.807       .  S
C1609      C1610   1.407       .  A
C1609      H1614   1.083       .  S
C1610      C1611   1.416       .  A
C1611      C1612   1.399       .  A
C1611      S1615   1.801       .  S
C1612      H1616   1.084       .  S
S1613      H1618   1.407       .  S
S1615      H1619   1.406       .  S
C1621      C1622   1.400       .  A
C1621      C1626   1.400       .  A
C1621      H1631   1.084       .  S
C1622      C1627   1.479       .  S
C1622      C1623   1.410       .  A
C1623      C1624   1.398       .  A
C1623      S1628   1.805       .  S
C1624      C1625   1.408       .  A
C1624      H1629   1.084       .  S
C1625      C1626   1.421       .  A
C1626      S1630   1.799       .  S
C1627      C1632   1.410       .  A
C1627      C1636   1.400       .  A
S1628      H1644   1.406       .  S
S1630      H1641   1.407       .  S
C1632      C1633   1.406       .  A
C1632      S1637   1.805       .  S
C1633      C1634   1.406       .  A
C1633      H1638   1.083       .  S
C1634      C1635   1.414       .  A
C1635      C1636   1.395       .  A
C1635      S1639   1.803       .  S
C1636      H1640   1.084       .  S
S1637      H1642   1.407       .  S
S1639      H1643   1.406       .  S
C1645      C1646   1.404       .  A
C1645      C1650   1.403       .  A
C1645      H1655   1.084       .  S
C1646      C1651   1.482       .  S
C1646      C1647   1.410       .  A
C1647      C1648   1.395       .  A
C1647      S1652   1.805       .  S
C1648      C1649   1.407       .  A
C1648      H1653   1.084       .  S
C1649      C1650   1.417       .  A
C1650      S1654   1.802       .  S
C1651      C1656   1.408       .  A
C1651      C1660   1.400       .  A
S1652      H1668   1.406       .  S
S1654      H1665   1.407       .  S
C1656      C1657   1.405       .  A
C1656      S1661   1.806       .  S
C1657      C1658   1.407       .  A
C1657      H1662   1.083       .  S
C1658      C1659   1.418       .  A
C1659      C1660   1.401       .  A
C1659      S1663   1.809       .  S
C1660      H1664   1.083       .  S
S1661      H1666   1.407       .  S
S1663      H1667   1.407       .  S
C1669      C1670   1.402       .  A
C1669      C1674   1.398       .  A
C1669      H1679   1.084       .  S
C1670      C1675   1.487       .  S
C1670      C1671   1.414       .  A
C1671      C1672   1.404       .  A
C1671      S1676   1.804       .  S
C1672      C1673   1.407       .  A
C1672      H1677   1.084       .  S
C1673      C1674   1.416       .  A
C1674      S1678   1.803       .  S
C1675      C1680   1.409       .  A
C1675      C1684   1.401   1_655  A
S1676      H1692   1.405       .  S
S1678      H1689   1.405       .  S
C1680      C1681   1.403   1_655  A
C1680      S1685   1.808       .  S
C1681      C1682   1.409       .  A
C1681      H1686   1.082       .  S
C1682      C1683   1.422       .  A
C1683      C1684   1.402       .  A
C1683      S1687   1.799       .  S
C1684      H1688   1.084       .  S
S1685      H1690   1.406       .  S
S1687      H1691   1.408       .  S
C1693      C1694   1.402       .  A
C1693      C1698   1.399       .  A
C1693      H1703   1.084       .  S
C1694      C1699   1.476       .  S
C1694      C1695   1.411       .  A
C1695      C1696   1.399       .  A
C1695      S1700   1.807       .  S
C1696      C1697   1.404       .  A
C1696      H1701   1.084       .  S
C1697      C1698   1.415       .  A
C1698      S1702   1.805       .  S
C1699      C1704   1.407       .  A
C1699      C1708   1.399       .  A
S1700      H1716   1.402       .  S
S1702      H1713   1.407       .  S
C1704      C1705   1.404       .  A
C1704      S1709   1.806       .  S
C1705      C1706   1.406       .  A
C1705      H1710   1.083       .  S
C1706      C1707   1.417       .  A
C1707      C1708   1.397       .  A
C1707      S1711   1.803       .  S
C1708      H1712   1.084       .  S
S1709      H1714   1.407       .  S
S1711      H1715   1.406       .  S
C1717      C1718   1.400       .  A
C1717      C1722   1.398       .  A
C1717      H1727   1.084       .  S
C1718      C1723   1.477       .  S
C1718      C1719   1.411       .  A
C1719      C1720   1.399       .  A
C1719      S1724   1.803       .  S
C1720      C1721   1.405       .  A
C1720      H1725   1.084       .  S
C1721      C1722   1.415       .  A
C1722      S1726   1.800       .  S
C1723      C1728   1.407       .  A
C1723      C1732   1.398       .  A
S1724      H1740   1.405       .  S
S1726      H1737   1.407       .  S
C1728      C1729   1.403       .  A
C1728      S1733   1.807       .  S
C1729      C1730   1.409       .  A
C1729      H1734   1.083       .  S
C1730      C1731   1.418       .  A
C1731      C1732   1.397       .  A
C1731      S1735   1.799       .  S
C1732      H1736   1.084       .  S
S1733      H1738   1.407       .  S
S1735      H1739   1.407       .  S
C1741      C1742   1.403       .  A
C1741      C1746   1.402       .  A
C1741      H1751   1.084       .  S
C1742      C1747   1.483       .  S
C1742      C1743   1.411       .  A
C1743      C1744   1.401       .  A
C1743      S1748   1.803       .  S
C1744      C1745   1.406       .  A
C1744      H1749   1.082       .  S
C1745      C1746   1.416       .  A
C1746      S1750   1.803       .  S
C1747      C1752   1.409       .  A
C1747      C1756   1.401       .  A
S1748      H1764   1.405       .  S
S1750      H1761   1.407       .  S
C1752      C1753   1.406       .  A
C1752      S1757   1.805       .  S
C1753      C1754   1.405       .  A
C1753      H1758   1.083       .  S
C1754      C1755   1.417       .  A
C1755      C1756   1.401       .  A
C1755      S1759   1.804       .  S
C1756      H1760   1.084       .  S
S1757      H1762   1.407       .  S
S1759      H1763   1.407       .  S
C1765      C1766   1.400       .  A
C1765      C1770   1.395       .  A
C1765      H1775   1.084       .  S
C1766      C1771   1.476       .  S
C1766      C1767   1.412       .  A
C1767      C1768   1.402       .  A
C1767      S1772   1.804       .  S
C1768      C1769   1.404       .  A
C1768      H1773   1.084       .  S
C1769      C1770   1.412       .  A
C1770      S1774   1.801       .  S
C1771      C1776   1.408       .  A
C1771      C1780   1.401       .  A
S1772      H1788   1.405       .  S
S1774      H1785   1.406       .  S
C1776      C1777   1.400       .  A
C1776      S1781   1.807       .  S
C1777      C1778   1.405       .  A
C1777      H1782   1.083       .  S
C1778      C1779   1.415       .  A
C1779      C1780   1.399       .  A
C1779      S1783   1.802       .  S
C1780      H1784   1.084       .  S
S1781      H1786   1.406       .  S
S1783      H1787   1.406       .  S
C1789      C1790   1.401       .  A
C1789      C1794   1.400       .  A
C1789      H1799   1.084       .  S
C1790      C1795   1.481       .  S
C1790      C1791   1.412       .  A
C1791      C1792   1.402       .  A
C1791      S1796   1.803       .  S
C1792      C1793   1.404       .  A
C1792      H1797   1.084       .  S
C1793      C1794   1.416       .  A
C1794      S1798   1.804       .  S
C1795      C1800   1.408   1_655  A
C1795      C1804   1.401       .  A
S1796      H1812   1.405       .  S
S1798      H1809   1.405   1_545  S
C1800      C1801   1.404       .  A
C1800      S1805   1.806       .  S
C1801      C1802   1.406       .  A
C1801      H1806   1.083       .  S
C1802      C1803   1.415       .  A
C1803      C1804   1.400   1_455  A
C1803      S1807   1.803   1_455  S
C1804      H1808   1.084       .  S
S1805      H1810   1.407       .  S
S1807      H1811   1.407   1_655  S
C1813      C1814   1.400       .  A
C1813      C1818   1.396       .  A
C1813      H1823   1.084       .  S
C1814      C1819   1.475       .  S
C1814      C1815   1.413       .  A
C1815      C1816   1.401       .  A
C1815      S1820   1.807       .  S
C1816      C1817   1.405       .  A
C1816      H1821   1.084       .  S
C1817      C1818   1.415       .  A
C1818      S1822   1.804       .  S
C1819      C1824   1.408       .  A
C1819      C1828   1.400       .  A
S1820      H1836   1.403       .  S
S1822      H1833   1.407       .  S
C1824      C1825   1.401       .  A
C1824      S1829   1.807       .  S
C1825      C1826   1.405       .  A
C1825      H1830   1.083       .  S
C1826      C1827   1.417       .  A
C1827      C1828   1.400       .  A
C1827      S1831   1.805       .  S
C1828      H1832   1.084       .  S
S1829      H1834   1.407       .  S
S1831      H1835   1.407       .  S
C1837      C1838   1.402       .  A
C1837      C1842   1.404       .  A
C1837      H1847   1.084       .  S
C1838      C1843   1.483   1_556  S
C1838      C1839   1.408       .  A
C1839      C1840   1.399       .  A
C1839      S1844   1.804   1_455  S
C1840      C1841   1.413       .  A
C1840      H1845   1.083   1_455  S
C1841      C1842   1.422       .  A
C1842      S1846   1.802       .  S
C1843      C1848   1.409       .  A
C1843      C1852   1.402       .  A
S1844      H1860   1.405   1_556  S
S1846      H1857   1.408       .  S
C1848      C1849   1.403       .  A
C1848      S1853   1.807   1_455  S
C1849      C1850   1.406       .  A
C1849      H1854   1.083   1_455  S
C1850      C1851   1.418       .  A
C1851      C1852   1.403       .  A
C1851      S1855   1.803       .  S
C1852      H1856   1.084       .  S
S1853      H1858   1.407       .  S
S1855      H1859   1.407       .  S
C1861      C1862   1.401       .  A
C1861      C1866   1.398       .  A
C1861      H1871   1.084       .  S
C1862      C1867   1.475       .  S
C1862      C1863   1.412       .  A
C1863      C1864   1.396       .  A
C1863      S1868   1.805       .  S
C1864      C1865   1.402       .  A
C1864      H1869   1.084       .  S
C1865      C1866   1.415       .  A
C1866      S1870   1.800       .  S
C1867      C1872   1.406       .  A
C1867      C1876   1.400       .  A
S1868      H1884   1.404       .  S
S1870      H1881   1.407       .  S
C1872      C1873   1.400       .  A
C1872      S1877   1.808       .  S
C1873      C1874   1.408       .  A
C1873      H1878   1.082       .  S
C1874      C1875   1.417       .  A
C1875      C1876   1.404       .  A
C1875      S1879   1.806       .  S
C1876      H1880   1.083       .  S
S1877      H1882   1.406       .  S
S1879      H1883   1.406       .  S
C1885      C1886   1.403       .  A
C1885      C1890   1.400       .  A
C1885      H1895   1.084       .  S
C1886      C1891   1.485       .  S
C1886      C1887   1.412       .  A
C1887      C1888   1.402       .  A
C1887      S1892   1.803       .  S
C1888      C1889   1.407       .  A
C1888      H1893   1.084       .  S
C1889      C1890   1.416       .  A
C1890      S1894   1.802       .  S
C1891      C1896   1.408       .  A
C1891      C1900   1.403       .  A
S1892      H1908   1.406       .  S
S1894      H1905   1.408       .  S
C1896      C1897   1.402       .  A
C1896      S1901   1.807       .  S
C1897      C1898   1.409       .  A
C1897      H1902   1.083       .  S
C1898      C1899   1.419       .  A
C1899      C1900   1.403       .  A
C1899      S1903   1.799       .  S
C1900      H1904   1.084       .  S
S1901      H1906   1.407       .  S
S1903      H1907   1.408       .  S
C1909      C1910   1.402       .  A
C1909      C1914   1.398       .  A
C1909      H1919   1.084       .  S
C1910      C1915   1.481       .  S
C1910      C1911   1.413       .  A
C1911      C1912   1.400       .  A
C1911      S1916   1.802       .  S
C1912      C1913   1.402       .  A
C1912      H1917   1.084       .  S
C1913      C1914   1.414       .  A
C1914      S1918   1.803       .  S
C1915      C1920   1.409       .  A
C1915      C1924   1.402       .  A
S1916      H1932   1.406       .  S
S1918      H1929   1.405       .  S
C1920      C1921   1.402       .  A
C1920      S1925   1.807       .  S
C1921      C1922   1.404       .  A
C1921      H1926   1.081       .  S
C1922      C1923   1.414       .  A
C1923      C1924   1.404       .  A
C1923      S1927   1.807       .  S
C1924      H1928   1.083       .  S
S1925      H1930   1.407       .  S
S1927      H1931   1.407       .  S
C1933      C1934   1.404       .  A
C1933      C1938   1.402       .  A
C1933      H1943   1.084       .  S
C1934      C1939   1.486       .  S
C1934      C1935   1.414       .  A
C1935      C1936   1.401       .  A
C1935      S1940   1.804       .  S
C1936      C1937   1.403       .  A
C1936      H1941   1.083       .  S
C1937      C1938   1.413       .  A
C1938      S1942   1.803       .  S
C1939      C1944   1.411       .  A
C1939      C1948   1.400       .  A
S1940      H1956   1.405       .  S
S1942      H1953   1.407       .  S
C1944      C1945   1.409       .  A
C1944      S1949   1.806       .  S
C1945      C1946   1.407       .  A
C1945      H1950   1.083       .  S
C1946      C1947   1.416       .  A
C1947      C1948   1.399       .  A
C1947      S1951   1.803       .  S
C1948      H1952   1.084       .  S
S1949      H1954   1.407       .  S
S1951      H1955   1.407       .  S
C1957      C1958   1.403       .  A
C1957      C1962   1.402       .  A
C1957      H1967   1.084       .  S
C1958      C1963   1.486       .  S
C1958      C1959   1.414       .  A
C1959      C1960   1.402       .  A
C1959      S1964   1.805       .  S
C1960      C1961   1.405       .  A
C1960      H1965   1.084       .  S
C1961      C1962   1.416       .  A
C1962      S1966   1.804       .  S
C1963      C1968   1.410       .  A
C1963      C1972   1.402       .  A
S1964      H1980   1.405       .  S
S1966      H1977   1.407       .  S
C1968      C1969   1.406       .  A
C1968      S1973   1.806       .  S
C1969      C1970   1.408       .  A
C1969      H1974   1.083       .  S
C1970      C1971   1.419       .  A
C1971      C1972   1.401       .  A
C1971      S1975   1.803       .  S
C1972      H1976   1.084       .  S
S1973      H1978   1.407       .  S
S1975      H1979   1.406       .  S
C1981      C1982   1.401       .  A
C1981      C1986   1.397       .  A
C1981      H1991   1.084       .  S
C1982      C1987   1.484       .  S
C1982      C1983   1.415       .  A
C1983      C1984   1.407       .  A
C1983      S1988   1.805       .  S
C1984      C1985   1.405       .  A
C1984      H1989   1.084       .  S
C1985      C1986   1.412       .  A
C1986      S1990   1.803       .  S
C1987      C1992   1.411       .  A
C1987      C1996   1.399       .  A
S1988      H2004   1.404       .  S
S1990      H2001   1.406       .  S
C1992      C1993   1.408       .  A
C1992      S1997   1.805       .  S
C1993      C1994   1.405       .  A
C1993      H1998   1.083       .  S
C1994      C1995   1.419       .  A
C1995      C1996   1.398       .  A
C1995      S1999   1.803       .  S
C1996      H2000   1.084       .  S
S1997      H2002   1.407       .  S
S1999      H2003   1.407       .  S
C2005      C2006   1.401       .  A
C2005      C2010   1.402       .  A
C2005      H2015   1.084       .  S
C2006      C2011   1.484       .  S
C2006      C2007   1.413       .  A
C2007      C2008   1.401       .  A
C2007      S2012   1.804       .  S
C2008      C2009   1.406       .  A
C2008      H2013   1.084       .  S
C2009      C2010   1.418       .  A
C2010      S2014   1.803       .  S
C2011      C2016   1.406       .  A
C2011      C2020   1.405       .  A
S2012      H2028   1.406       .  S
S2014      H2025   1.407       .  S
C2016      C2017   1.400       .  A
C2016      S2021   1.808       .  S
C2017      C2018   1.412       .  A
C2017      H2022   1.082       .  S
C2018      C2019   1.417       .  A
C2019      C2020   1.405       .  A
C2019      S2023   1.802       .  S
C2020      H2024   1.084       .  S
S2021      H2026   1.407       .  S
S2023      H2027   1.407       .  S
C2029      C2030   1.401       .  A
C2029      C2034   1.399       .  A
C2029      H2039   1.084       .  S
C2030      C2035   1.481       .  S
C2030      C2031   1.415       .  A
C2031      C2032   1.404       .  A
C2031      S2036   1.808       .  S
C2032      C2033   1.404       .  A
C2032      H2037   1.084       .  S
C2033      C2034   1.415       .  A
C2034      S2038   1.803       .  S
C2035      C2040   1.410       .  A
C2035      C2044   1.401       .  A
S2036      H2052   1.401       .  S
S2038      H2049   1.407       .  S
C2040      C2041   1.405       .  A
C2040      S2045   1.805       .  S
C2041      C2042   1.405       .  A
C2041      H2046   1.083       .  S
C2042      C2043   1.415       .  A
C2043      C2044   1.399       .  A
C2043      S2047   1.803       .  S
C2044      H2048   1.084       .  S
S2045      H2050   1.407       .  S
S2047      H2051   1.408       .  S
C2053      C2054   1.399       .  A
C2053      C2058   1.395       .  A
C2053      H2063   1.084       .  S
C2054      C2059   1.480       .  S
C2054      C2055   1.414       .  A
C2055      C2056   1.403       .  A
C2055      S2060   1.802       .  S
C2056      C2057   1.403       .  A
C2056      H2061   1.084       .  S
C2057      C2058   1.416       .  A
C2058      S2062   1.803       .  S
C2059      C2064   1.412       .  A
C2059      C2068   1.399       .  A
S2060      H2076   1.407       .  S
S2062      H2073   1.406       .  S
C2064      C2065   1.408       .  A
C2064      S2069   1.805       .  S
C2065      C2066   1.402       .  A
C2065      H2070   1.083       .  S
C2066      C2067   1.412       .  A
C2067      C2068   1.394       .  A
C2067      S2071   1.803       .  S
C2068      H2072   1.084       .  S
S2069      H2074   1.407       .  S
S2071      H2075   1.406       .  S
C2077      C2078   1.401       .  A
C2077      C2082   1.399       .  A
C2077      H2087   1.084       .  S
C2078      C2083   1.483       .  S
C2078      C2079   1.413       .  A
C2079      C2080   1.403       .  A
C2079      S2084   1.803       .  S
C2080      C2081   1.405       .  A
C2080      H2085   1.084       .  S
C2081      C2082   1.414       .  A
C2082      S2086   1.801   1_455  S
C2083      C2088   1.410   1_565  A
C2083      C2092   1.400       .  A
S2084      H2100   1.406       .  S
S2086      H2097   1.407       .  S
C2088      C2089   1.407       .  A
C2088      S2093   1.805       .  S
C2089      C2090   1.407       .  A
C2089      H2094   1.083       .  S
C2090      C2091   1.415       .  A
C2091      C2092   1.399   1_545  A
C2091      S2095   1.801       .  S
C2092      H2096   1.084       .  S
S2093      H2098   1.407       .  S
S2095      H2099   1.408       .  S
C2101      C2102   1.400       .  A
C2101      C2106   1.400       .  A
C2101      H2111   1.084       .  S
C2102      C2107   1.484       .  S
C2102      C2103   1.414       .  A
C2103      C2104   1.405       .  A
C2103      S2108   1.804       .  S
C2104      C2105   1.405       .  A
C2104      H2109   1.084       .  S
C2105      C2106   1.416       .  A
C2106      S2110   1.804       .  S
C2107      C2112   1.409       .  A
C2107      C2116   1.401       .  A
S2108      H2124   1.405       .  S
S2110      H2121   1.407       .  S
C2112      C2113   1.406       .  A
C2112      S2117   1.805       .  S
C2113      C2114   1.408       .  A
C2113      H2118   1.083       .  S
C2114      C2115   1.417       .  A
C2115      C2116   1.401       .  A
C2115      S2119   1.800       .  S
C2116      H2120   1.084       .  S
S2117      H2122   1.407       .  S
S2119      H2123   1.407       .  S
C2125      C2126   1.398       .  A
C2125      C2130   1.392       .  A
C2125      H2135   1.084       .  S
C2126      C2131   1.480       .  S
C2126      C2127   1.415       .  A
C2127      C2128   1.403       .  A
C2127      S2132   1.804       .  S
C2128      C2129   1.404       .  A
C2128      H2133   1.084       .  S
C2129      C2130   1.417       .  A
C2130      S2134   1.803       .  S
C2131      C2136   1.413       .  A
C2131      C2140   1.400       .  A
S2132      H2148   1.406       .  S
S2134      H2145   1.407       .  S
C2136      C2137   1.406       .  A
C2136      S2141   1.806       .  S
C2137      C2138   1.402       .  A
C2137      H2142   1.083       .  S
C2138      C2139   1.412       .  A
C2139      C2140   1.394       .  A
C2139      S2143   1.805       .  S
C2140      H2144   1.084       .  S
S2141      H2146   1.407       .  S
S2143      H2147   1.406       .  S
C2149      C2150   1.402       .  A
C2149      C2154   1.401       .  A
C2149      H2159   1.084       .  S
C2150      C2155   1.481       .  S
C2150      C2151   1.413       .  A
C2151      C2152   1.399       .  A
C2151      S2156   1.806       .  S
C2152      C2153   1.405       .  A
C2152      H2157   1.084       .  S
C2153      C2154   1.416       .  A
C2154      S2158   1.804       .  S
C2155      C2160   1.408       .  A
C2155      C2164   1.401       .  A
S2156      H2172   1.405       .  S
S2158      H2169   1.405       .  S
C2160      C2161   1.401   1_655  A
C2160      S2165   1.808       .  S
C2161      C2162   1.408       .  A
C2161      H2166   1.082       .  S
C2162      C2163   1.419       .  A
C2163      C2164   1.403   1_455  A
C2163      S2167   1.800       .  S
C2164      H2168   1.084       .  S
S2165      H2170   1.407       .  S
S2167      H2171   1.407       .  S
C2173      C2174   1.403       .  A
C2173      C2178   1.401       .  A
C2173      H2183   1.084       .  S
C2174      C2179   1.484       .  S
C2174      C2175   1.412       .  A
C2175      C2176   1.401       .  A
C2175      S2180   1.805       .  S
C2176      C2177   1.406       .  A
C2176      H2181   1.084       .  S
C2177      C2178   1.415       .  A
C2178      S2182   1.802       .  S
C2179      C2184   1.411       .  A
C2179      C2188   1.402       .  A
S2180      H2196   1.406       .  S
S2182      H2193   1.407       .  S
C2184      C2185   1.406       .  A
C2184      S2189   1.806       .  S
C2185      C2186   1.404       .  A
C2185      H2190   1.083       .  S
C2186      C2187   1.414       .  A
C2187      C2188   1.399       .  A
C2187      S2191   1.805       .  S
C2188      H2192   1.084       .  S
S2189      H2194   1.407       .  S
S2191      H2195   1.407       .  S
C2197      C2198   1.403       .  A
C2197      C2202   1.402       .  A
C2197      H2207   1.084       .  S
C2198      C2203   1.482       .  S
C2198      C2199   1.413       .  A
C2199      C2200   1.399       .  A
C2199      S2204   1.805       .  S
C2200      C2201   1.405       .  A
C2200      H2205   1.084       .  S
C2201      C2202   1.414       .  A
C2202      S2206   1.801       .  S
C2203      C2208   1.408       .  A
C2203      C2212   1.401       .  A
S2204      H2220   1.405   1_545  S
S2206      H2217   1.407       .  S
C2208      C2209   1.404       .  A
C2208      S2213   1.808       .  S
C2209      C2210   1.409   1_545  A
C2209      H2214   1.081       .  S
C2210      C2211   1.417       .  A
C2211      C2212   1.401   1_565  A
C2211      S2215   1.800       .  S
C2212      H2216   1.084       .  S
S2213      H2218   1.405       .  S
S2215      H2219   1.407       .  S
C2221      C2222   1.405       .  A
C2221      C2226   1.407       .  A
C2221      H2231   1.084       .  S
C2222      C2227   1.485       .  S
C2222      C2223   1.408       .  A
C2223      C2224   1.396       .  A
C2223      S2228   1.805       .  S
C2224      C2225   1.412       .  A
C2224      H2229   1.083       .  S
C2225      C2226   1.418       .  A
C2226      S2230   1.802       .  S
C2227      C2232   1.410       .  A
C2227      C2236   1.403       .  A
S2228      H2244   1.406       .  S
S2230      H2241   1.408       .  S
C2232      C2233   1.401       .  A
C2232      S2237   1.807       .  S
C2233      C2234   1.404       .  A
C2233      H2238   1.083       .  S
C2234      C2235   1.418       .  A
C2235      C2236   1.405       .  A
C2235      S2239   1.803       .  S
C2236      H2240   1.084       .  S
S2237      H2242   1.407       .  S
S2239      H2243   1.407       .  S
C2245      C2246   1.402       .  A
C2245      C2250   1.401       .  A
C2245      H2255   1.084       .  S
C2246      C2251   1.484       .  S
C2246      C2247   1.411       .  A
C2247      C2248   1.397       .  A
C2247      S2252   1.805       .  S
C2248      C2249   1.408       .  A
C2248      H2253   1.084       .  S
C2249      C2250   1.422       .  A
C2250      S2254   1.800       .  S
C2251      C2256   1.411       .  A
C2251      C2260   1.402       .  A
S2252      H2268   1.407       .  S
S2254      H2265   1.408   1_545  S
C2256      C2257   1.405       .  A
C2256      S2261   1.805       .  S
C2257      C2258   1.405       .  A
C2257      H2262   1.083       .  S
C2258      C2259   1.415       .  A
C2259      C2260   1.396       .  A
C2259      S2263   1.804       .  S
C2260      H2264   1.084       .  S
S2261      H2266   1.406       .  S
S2263      H2267   1.407       .  S
C2269      C2270   1.403       .  A
C2269      C2274   1.404       .  A
C2269      H2279   1.084       .  S
C2270      C2275   1.483       .  S
C2270      C2271   1.411       .  A
C2271      C2272   1.398       .  A
C2271      S2276   1.804       .  S
C2272      C2273   1.406       .  A
C2272      H2277   1.084       .  S
C2273      C2274   1.418       .  A
C2274      S2278   1.802       .  S
C2275      C2280   1.408       .  A
C2275      C2284   1.402       .  A
S2276      H2292   1.406       .  S
S2278      H2289   1.405       .  S
C2280      C2281   1.402       .  A
C2280      S2285   1.808       .  S
C2281      C2282   1.408       .  A
C2281      H2286   1.083       .  S
C2282      C2283   1.418       .  A
C2283      C2284   1.404       .  A
C2283      S2287   1.803       .  S
C2284      H2288   1.084       .  S
S2285      H2290   1.407       .  S
S2287      H2291   1.407       .  S
C2293      C2294   1.401       .  A
C2293      C2298   1.401       .  A
C2293      H2303   1.084       .  S
C2294      C2299   1.484       .  S
C2294      C2295   1.412       .  A
C2295      C2296   1.404       .  A
C2295      S2300   1.805       .  S
C2296      C2297   1.409       .  A
C2296      H2301   1.084       .  S
C2297      C2298   1.417       .  A
C2298      S2302   1.801       .  S
C2299      C2304   1.410       .  A
C2299      C2308   1.399       .  A
S2300      H2316   1.404       .  S
S2302      H2313   1.407       .  S
C2304      C2305   1.408       .  A
C2304      S2309   1.804       .  S
C2305      C2306   1.407       .  A
C2305      H2310   1.083       .  S
C2306      C2307   1.417       .  A
C2307      C2308   1.397       .  A
C2307      S2311   1.804       .  S
C2308      H2312   1.084       .  S
S2309      H2314   1.407       .  S
S2311      H2315   1.406       .  S
C2317      C2318   1.400       .  A
C2317      C2322   1.397       .  A
C2317      H2327   1.084       .  S
C2318      C2323   1.479       .  S
C2318      C2319   1.411       .  A
C2319      C2320   1.402       .  A
C2319      S2324   1.803       .  S
C2320      C2321   1.405       .  A
C2320      H2325   1.084       .  S
C2321      C2322   1.416       .  A
C2322      S2326   1.804       .  S
C2323      C2328   1.407       .  A
C2323      C2332   1.402       .  A
S2324      H2340   1.405       .  S
S2326      H2337   1.404   1_545  S
C2328      C2329   1.401   1_655  A
C2328      S2333   1.804       .  S
C2329      C2330   1.405       .  A
C2329      H2334   1.084       .  S
C2330      C2331   1.412   1_455  A
C2331      C2332   1.405       .  A
C2331      S2335   1.806       .  S
C2332      H2336   1.083       .  S
S2333      H2338   1.407   1_655  S
S2335      H2339   1.407       .  S
C2341      C2342   1.397       .  A
C2341      C2346   1.392       .  A
C2341      H2351   1.085       .  S
C2342      C2347   1.477       .  S
C2342      C2343   1.416       .  A
C2343      C2344   1.403       .  A
C2343      S2348   1.807       .  S
C2344      C2345   1.405       .  A
C2344      H2349   1.084       .  S
C2345      C2346   1.417       .  A
C2346      S2350   1.802       .  S
C2347      C2352   1.409       .  A
C2347      C2356   1.402       .  A
S2348      H2364   1.404       .  S
S2350      H2361   1.406       .  S
C2352      C2353   1.402       .  A
C2352      S2357   1.806       .  S
C2353      C2354   1.404       .  A
C2353      H2358   1.083       .  S
C2354      C2355   1.414       .  A
C2355      C2356   1.396       .  A
C2355      S2359   1.804       .  S
C2356      H2360   1.084       .  S
S2357      H2362   1.407       .  S
S2359      H2363   1.406       .  S
C2365      C2366   1.404       .  A
C2365      C2370   1.401       .  A
C2365      H2375   1.084       .  S
C2366      C2371   1.486       .  S
C2366      C2367   1.413       .  A
C2367      C2368   1.400       .  A
C2367      S2372   1.802       .  S
C2368      C2369   1.403       .  A
C2368      H2373   1.084       .  S
C2369      C2370   1.413       .  A
C2370      S2374   1.803       .  S
C2371      C2376   1.407       .  A
C2371      C2380   1.399       .  A
S2372      H2388   1.407       .  S
S2374      H2385   1.407       .  S
C2376      C2377   1.405       .  A
C2376      S2381   1.807       .  S
C2377      C2378   1.413       .  A
C2377      H2382   1.082       .  S
C2378      C2379   1.425       .  A
C2379      C2380   1.401       .  A
C2379      S2383   1.798       .  S
C2380      H2384   1.084       .  S
S2381      H2386   1.407       .  S
S2383      H2387   1.407       .  S
C2389      C2390   1.401   1_545  A
C2389      C2394   1.397       .  A
C2389      H2399   1.084   1_545  S
C2390      C2395   1.477       .  S
C2390      C2391   1.411   1_565  A
C2391      C2392   1.401       .  A
C2391      S2396   1.804   1_545  S
C2392      C2393   1.405       .  A
C2392      H2397   1.084       .  S
C2393      C2394   1.413       .  A
C2394      S2398   1.801       .  S
C2395      C2400   1.407       .  A
C2395      C2404   1.402       .  A
S2396      H2412   1.405       .  S
S2398      H2409   1.407       .  S
C2400      C2401   1.401       .  A
C2400      S2405   1.807       .  S
C2401      C2402   1.406       .  A
C2401      H2406   1.083       .  S
C2402      C2403   1.414       .  A
C2403      C2404   1.405       .  A
C2403      S2407   1.807       .  S
C2404      H2408   1.083       .  S
S2405      H2410   1.407       .  S
S2407      H2411   1.407       .  S
C2413      C2414   1.401       .  A
C2413      C2418   1.401       .  A
C2413      H2423   1.084       .  S
C2414      C2419   1.485       .  S
C2414      C2415   1.413       .  A
C2415      C2416   1.404       .  A
C2415      S2420   1.804       .  S
C2416      C2417   1.406       .  A
C2416      H2421   1.083       .  S
C2417      C2418   1.416       .  A
C2418      S2422   1.802       .  S
C2419      C2424   1.409       .  A
C2419      C2428   1.402       .  A
S2420      H2436   1.405       .  S
S2422      H2433   1.407       .  S
C2424      C2425   1.404       .  A
C2424      S2429   1.806       .  S
C2425      C2426   1.406       .  A
C2425      H2430   1.083       .  S
C2426      C2427   1.416       .  A
C2427      C2428   1.403       .  A
C2427      S2431   1.803       .  S
C2428      H2432   1.084       .  S
S2429      H2434   1.407       .  S
S2431      H2435   1.407       .  S
C2437      C2438   1.401       .  A
C2437      C2442   1.400       .  A
C2437      H2447   1.084       .  S
C2438      C2443   1.477       .  S
C2438      C2439   1.410       .  A
C2439      C2440   1.399       .  A
C2439      S2444   1.806       .  S
C2440      C2441   1.409       .  A
C2440      H2445   1.084       .  S
C2441      C2442   1.416       .  A
C2442      S2446   1.797       .  S
C2443      C2448   1.407       .  A
C2443      C2452   1.401       .  A
S2444      H2460   1.404       .  S
S2446      H2457   1.405       .  S
C2448      C2449   1.403       .  A
C2448      S2453   1.804       .  S
C2449      C2450   1.405       .  A
C2449      H2454   1.083       .  S
C2450      C2451   1.414       .  A
C2451      C2452   1.399       .  A
C2451      S2455   1.804       .  S
C2452      H2456   1.084       .  S
S2453      H2458   1.407       .  S
S2455      H2459   1.407       .  S
C2461      C2462   1.404       .  A
C2461      C2466   1.404       .  A
C2461      H2471   1.084       .  S
C2462      C2467   1.480   1_655  S
C2462      C2463   1.410   1_655  A
C2463      C2464   1.395   1_455  A
C2463      S2468   1.806       .  S
C2464      C2465   1.401       .  A
C2464      H2469   1.078       .  S
C2465      C2466   1.414       .  A
C2466      S2470   1.802       .  S
C2467      C2472   1.408       .  A
C2467      C2476   1.403       .  A
S2468      H2484   1.405       .  S
S2470      H2481   1.407       .  S
C2472      C2473   1.402       .  A
C2472      S2477   1.807   1_455  S
C2473      C2474   1.406       .  A
C2473      H2478   1.083       .  S
C2474      C2475   1.414       .  A
C2475      C2476   1.401       .  A
C2475      S2479   1.802       .  S
C2476      H2480   1.084       .  S
S2477      H2482   1.407       .  S
S2479      H2483   1.407       .  S
