geometry optimzed in LAMMPS
_audit_creation_date              2020-12-01 
_audit_creation_method            'lammps2cif' 
_symmetry_space_group_name_H-M    'P1' 
_symmetry_Int_Tables_number       1 
_symmetry_cell_setting            triclinic 
loop_ 
_symmetry_equiv_pos_as_xyz 
  x,y,z 
_cell_length_a                    39.60704691 
_cell_length_b                    39.62574974353468 
_cell_length_c                    105.52494987631492 
_cell_angle_alpha                 90.07914792218094 
_cell_angle_beta                  89.96248339806174 
_cell_angle_gamma                 120.01834868166105 
loop_ 
_atom_site_label 
_atom_site_type_symbol 
_atom_site_fract_x 
_atom_site_fract_y 
_atom_site_fract_z 
_atom_site_charge 
Zr1        Zr  0.88270042  0.16973021  0.56104166     2.17500
O2          O  0.87031628  0.13148076  0.54173925    -0.51200
O3          O  0.94766572  0.17944461  0.56456287    -0.74400
O4          O  0.91703517  0.21205046  0.54318873    -0.81200
O5          O  0.83813349  0.08129052  0.58187228    -0.83000
O6          O  0.91648489  0.26887188  0.54542144    -0.78600
O7          O  0.86722004  0.10232258  0.56282163    -0.90200
O8          O  0.97477241  0.22080996  0.58124117    -0.76200
O9          O  0.91682977  0.23555989  0.56822542    -0.85700
O10         O  0.89135979  0.16668001  0.58326188    -0.85400
O11         O  0.84141647  0.19610182  0.55566771    -0.72100
O12         O  0.81784218  0.13263383  0.56950237    -0.84300
Zr13       Zr  0.82058507  0.22346436  0.59472872     2.26400
Zr14       Zr  0.87536998  0.26166272  0.56350980     2.06300
Zr15       Zr  0.82697432  0.13076564  0.59173681     2.10000
Zr16       Zr  0.92532302  0.23262804  0.59033984     1.78800
O17         O  0.76041291  0.07639011  0.59281322    -0.93100
O18         O  0.98149655  0.29718374  0.58678579    -0.40900
O19         O  0.86173324  0.19660451  0.59944851    -0.77500
O20         O  0.88527645  0.26086073  0.58591276    -0.96200
O21         O  0.81159033  0.22632900  0.57252669    -0.89500
O22         O  0.78555809  0.15744919  0.58750796    -0.92300
C23         C  0.97582677  0.19958656  0.57224352     1.01400
C24         C  0.85201938  0.07622005  0.57148956     1.14300
C25         C  0.92675697  0.24680142  0.53969807     1.05100
O26         O  0.92897296  0.32848236  0.56189339    -0.94500
O27         O  0.86191466  0.31071599  0.57198827    -0.90200
O28         O  0.83416980  0.29017271  0.59138796    -0.83400
C29         C  0.84750888  0.31520714  0.58233120     1.11800
O30         O  0.76239430  0.12380014  0.54549239    -0.96500
Zr31       Zr  0.77773125  0.16086346  0.56520622     1.88900
O32         O  0.75176796  0.20469945  0.59301991    -0.73100
O33         O  0.84020110  0.26928595  0.54583419    -0.52400
O34         O  0.75764164  0.19145524  0.54917745    -0.97100
O35         O  0.72229261  0.09511069  0.56735271    -0.54300
O36         O  0.72699111  0.16995051  0.57490014    -0.73600
C37         C  0.72415080  0.18679947  0.58492025     0.98700
O38         O  0.82042242  0.26390491  0.61217557    -0.62500
O39         O  0.84447051  0.09581794  0.60696800    -0.57300
O40         O  0.81372833  0.19420590  0.61577253    -0.93900
O41         O  0.81618321  0.13840239  0.61381756    -0.92400
O42         O  0.94430637  0.20523359  0.60769119    -0.92700
O43         O  0.94483232  0.27411389  0.60908185    -0.91500
C44         C  0.81342746  0.16404854  0.62043596     1.17500
H45         H  0.90563989  0.15349193  0.58522386     0.33500
H46         H  0.89821988  0.28708331  0.58924288     0.44300
H47         H  0.76071510  0.14276233  0.59189007     0.37900
H48         H  0.83875058  0.19599745  0.54656357     0.34400
H49         H  0.00396411  0.29573706  0.59025954     0.26100
H50         H  0.85567079  0.29726734  0.54362006     0.32100
H51         H  0.72879597  0.17585604  0.54908721     0.38000
H52         H  0.97309338  0.22130348  0.60805603     0.32400
H53         H  0.82502619  0.06786467  0.60583269     0.31300
H54         H  0.75344075  0.07428541  0.60190364     0.33000
H55         H  0.69965761  0.09696852  0.56428460     0.32000
H56         H  0.92005827  0.26679832  0.61351004     0.36000
H57         H  0.79598889  0.24766359  0.61694012     0.28700
H58         H  0.89584572  0.14184741  0.53744855     0.32900
H59         H  0.73578620  0.11778448  0.54309703     0.35800
H60         H  0.86943093  0.09866026  0.60393318     0.28400
H61         H  0.84169854  0.26752092  0.61794362     0.41300
H62         H  0.94539107  0.33205612  0.56940828     0.31300
H63         H  0.98557251  0.29888563  0.57749961     0.38900
H64         H  0.71799963  0.09092310  0.57658698     0.30800
H65         H  0.84418668  0.25571832  0.53860317     0.30900
H66         H  0.85499388  0.13924833  0.53631422     0.31100
Zr67       Zr  0.14992474  0.31066633  0.44037676     2.17500
O68         O  0.16725178  0.28585690  0.45887830    -0.51200
O69         O  0.08469607  0.25577073  0.43688263    -0.74400
O70         O  0.11618325  0.31533145  0.45909672    -0.81200
O71         O  0.19559636  0.27126152  0.41763404    -0.83000
O72         O  0.11634779  0.37279728  0.45810733    -0.78600
O73         O  0.16648619  0.26009943  0.43687809    -0.90200
O74         O  0.05934460  0.26986234  0.41972977    -0.76200
O75         O  0.11496257  0.34206930  0.43387424    -0.85700
O76         O  0.14261864  0.30221686  0.41796623    -0.85400
O77         O  0.18928312  0.37746169  0.44682323    -0.72100
O78         O  0.21480773  0.34064497  0.43191815    -0.84300
Zr79       Zr  0.21169419  0.43172535  0.40884464     2.26400
Zr80       Zr  0.15467444  0.40902824  0.43976624     2.06300
Zr81       Zr  0.20716100  0.33363295  0.40947315     2.10000
Zr82       Zr  0.10778210  0.33365883  0.41158982     1.78800
O83         O  0.27360065  0.34538327  0.40931359    -0.93100
O84         O  0.05076808  0.34032728  0.41547376    -0.40900
O85         O  0.17184037  0.36475997  0.40260656    -0.77500
O86         O  0.14637473  0.40118257  0.41726184    -0.96200
O87         O  0.21911368  0.43988667  0.43119729    -0.89500
O88         O  0.24723917  0.40077517  0.41521795    -0.92300
C89         C  0.05723449  0.24739408  0.42885395     1.01400
C90         C  0.18190618  0.25093376  0.42776459     1.14300
C91         C  0.10666267  0.33988650  0.46333591     1.05100
O92         O  0.09768111  0.41657943  0.44210261    -0.94500
O93         O  0.16493252  0.47137874  0.43195247    -0.90200
O94         O  0.19483799  0.48199389  0.41278877    -0.83400
C95         C  0.17933154  0.49142658  0.42179325     1.11800
O96         O  0.26599017  0.38318756  0.45727005    -0.96500
Zr97       Zr  0.25341280  0.40787853  0.43771272     1.88900
O98         O  0.27992676  0.48250930  0.41183486    -0.73100
O99         O  0.19009824  0.45183759  0.45742787    -0.52400
O100        O  0.27475049  0.45497575  0.45501246    -0.97100
O101        O  0.30728479  0.39609566  0.43376155    -0.54300
O102        O  0.30327583  0.47077920  0.42989016    -0.73600
C103        C  0.30664486  0.49199500  0.42027794     0.98700
O104        O  0.21025701  0.47416601  0.39236419    -0.62500
O105        O  0.18949222  0.28592883  0.39246706    -0.57300
O106        O  0.22426574  0.41626003  0.38752485    -0.93900
O107        O  0.22334899  0.35847338  0.38803447    -0.92400
O108        O  0.09239180  0.29195721  0.39301165    -0.92700
O109        O  0.08795298  0.35809723  0.39359129    -0.91500
C110        C  0.22714781  0.38858579  0.38223425     1.17500
H111        H  0.12880916  0.27495065  0.41558742     0.33500
H112        H  0.13292977  0.41429972  0.41420293     0.44300
H113        H  0.27233807  0.41217871  0.41097402     0.37900
H114        H  0.19149553  0.37876238  0.45596459     0.34400
H115        H  0.02850782  0.31596905  0.41214304     0.26100
H116        H  0.17378981  0.46305607  0.46007600     0.32100
H117        H  0.30360605  0.46852896  0.45482449     0.38000
H118        H  0.11638756  0.30441330  0.38779385     0.32400
H119        H  0.20908188  0.27738678  0.39284753     0.31300
H120        H  0.27982800  0.34538438  0.40022967     0.33000
H121        H  0.32800621  0.41350925  0.43972245     0.32000
H122        H  0.10936568  0.38532128  0.39252254     0.36000
H123        H  0.23556516  0.48527492  0.38787292     0.28700
H124        H  0.14237422  0.26829094  0.46322796     0.32900
H125        H  0.29390555  0.40058737  0.45927252     0.35800
H126        H  0.16471432  0.26293104  0.39517189     0.28400
H127        H  0.19044596  0.45677236  0.38614819     0.41300
H128        H  0.08696801  0.41333592  0.43342603     0.31300
H129        H  0.04726756  0.33826144  0.42478482     0.38900
H130        H  0.31743604  0.40747855  0.42531125     0.30800
H131        H  0.18767178  0.43425204  0.46446285     0.30900
H132        H  0.18105291  0.30870906  0.46453878     0.31100
Zr133      Zr  0.15662557  0.90591709  0.43863302     2.12100
O134        O  0.11754482  0.89411728  0.45773400    -0.51200
O135        O  0.16927997  0.97191309  0.43466266    -0.74400
O136        O  0.19685279  0.93922677  0.45708606    -0.81200
O137        O  0.06876169  0.85839546  0.41675391    -0.83000
O138        O  0.25299786  0.93738514  0.45574488    -0.78600
O139        O  0.08944641  0.89063542  0.43549658    -0.90200
O140        O  0.20770435  0.99588917  0.41715733    -0.76200
O141        O  0.22253027  0.93929867  0.43162599    -0.85700
O142        O  0.15505218  0.91330457  0.41629026    -0.85400
O143        O  0.18253329  0.86478051  0.44471887    -0.72100
O144        O  0.12022930  0.84083973  0.43029783    -0.84300
Zr145      Zr  0.21168264  0.84100829  0.40601462     2.26400
Zr146      Zr  0.24823269  0.89823987  0.43716480     2.06300
Zr147      Zr  0.11987608  0.84893550  0.40790298     2.10000
Zr148      Zr  0.22100350  0.94617051  0.40934017     1.78800
O149        O  0.06105374  0.78544176  0.40602905    -0.93100
O150        O  0.28502735  0.00155359  0.41416372    -0.40900
O151        O  0.18557491  0.88213942  0.40042493    -0.77500
O152        O  0.24835245  0.90606373  0.41460131    -0.96200
O153        O  0.21333456  0.83413017  0.42840006    -0.89500
O154        O  0.14564758  0.80751128  0.41310378    -0.92300
C155        C  0.18836725  0.99871574  0.42643339     1.01400
C156        C  0.06364366  0.87364178  0.42678094     1.14300
C157        C  0.23085370  0.94814049  0.46122314     1.05100
O158        O  0.31322778  0.95491750  0.43900159    -0.94500
O159        O  0.29823046  0.88573051  0.42922769    -0.90200
O160        O  0.27730997  0.85218676  0.41063115    -0.83400
C161        C  0.30259507  0.86865532  0.41955424     1.11800
O162        O  0.11092895  0.78660550  0.45520078    -0.96500
Zr163      Zr  0.14771524  0.80068573  0.43546343     1.88900
O164        O  0.19721445  0.77397526  0.40905253    -0.73100
O165        O  0.25693030  0.86054394  0.45371244    -0.52400
O166        O  0.17353360  0.77775993  0.45223914    -0.97100
O167        O  0.08087129  0.74813989  0.43226244    -0.54300
O168        O  0.15982886  0.75058898  0.42674867    -0.73600
C169        C  0.17841698  0.74708525  0.41730295     0.98700
O170        O  0.24971754  0.85431901  0.38655544    -0.62500
O171        O  0.09833584  0.87794285  0.39172226    -0.57300
O172        O  0.17428052  0.81534971  0.38622522    -0.93900
O173        O  0.12508767  0.82853426  0.38686846    -0.92400
O174        O  0.19723423  0.96508187  0.39094410    -0.92700
O175        O  0.26490795  0.96507350  0.39124211    -0.91500
C176        C  0.14523714  0.81626888  0.38106054     1.17500
H177        H  0.14208443  0.92763866  0.41408890     0.33500
H178        H  0.27484693  0.91869540  0.41142774     0.44300
H179        H  0.13107212  0.78246000  0.40894049     0.37900
H180        H  0.18216484  0.86251741  0.45392498     0.34400
H181        H  0.28760178  0.02264391  0.40850957     0.26100
H182        H  0.28454018  0.87658928  0.45630440     0.32100
H183        H  0.19921121  0.78285670  0.44908576     0.38000
H184        H  0.17756822  0.94014121  0.38706665     0.32400
H185        H  0.06956057  0.86163720  0.39159482     0.31300
H186        H  0.06750266  0.77060368  0.39988899     0.33000
H187        H  0.07910309  0.72572115  0.43696477     0.32000
H188        H  0.25895959  0.94011006  0.38722052     0.36000
H189        H  0.24153444  0.86936082  0.38114273     0.28700
H190        H  0.12511755  0.92022129  0.46117927     0.32900
H191        H  0.10187731  0.75896388  0.45719864     0.35800
H192        H  0.10341263  0.90318784  0.39527370     0.28400
H193        H  0.27686103  0.87361843  0.38882240     0.41300
H194        H  0.32478221  0.94957247  0.44651416     0.31300
H195        H  0.28238869  0.01007868  0.42274963     0.38900
H196        H  0.07936608  0.74078540  0.42323107     0.30800
H197        H  0.24167786  0.86132527  0.46102286     0.30900
H198        H  0.12776029  0.88260861  0.46390109     0.31100
Zr199      Zr  0.28621456  0.15462911  0.56475243     2.17500
O200        O  0.25290695  0.15890511  0.54595859    -0.51200
O201        O  0.23531692  0.08855098  0.56958715    -0.74400
O202        O  0.29462335  0.12264803  0.54619734    -0.81200
O203        O  0.24569585  0.20365204  0.58596542    -0.83000
O204        O  0.35311733  0.12532805  0.54691336    -0.78600
O205        O  0.23325551  0.16848358  0.56780480    -0.90200
O206        O  0.25410851  0.06596925  0.58639251    -0.76200
O207        O  0.32112674  0.12366518  0.57172287    -0.85700
O208        O  0.27948905  0.15001800  0.58718478    -0.85400
O209        O  0.35205273  0.19628528  0.55778600    -0.72100
O210        O  0.31377142  0.22064734  0.57206770    -0.84300
Zr211      Zr  0.40973233  0.22643446  0.59541179     2.26400
Zr212      Zr  0.38721132  0.16559968  0.56529911     2.06300
Zr213      Zr  0.30807901  0.21560375  0.59460817     2.10000
Zr214      Zr  0.31509498  0.11965164  0.59411140     1.78800
O215        O  0.30923520  0.27754439  0.59609570    -0.93100
O216        O  0.32819458  0.06628543  0.59122724    -0.40900
O217        O  0.34338010  0.18491250  0.60186943    -0.77500
O218        O  0.38192619  0.16011532  0.58798486    -0.96200
O219        O  0.41619300  0.23122971  0.57296442    -0.89500
O220        O  0.37472939  0.25772083  0.58850996    -0.92300
C221        C  0.23021766  0.06200309  0.57755603     1.01400
C222        C  0.22454005  0.18649899  0.57618327     1.14300
C223        C  0.31977516  0.11427845  0.54174502     1.05100
O224        O  0.39680793  0.10978020  0.56332150    -0.94500
O225        O  0.44989410  0.17755317  0.57320402    -0.90200
O226        O  0.46057377  0.20867691  0.59211126    -0.83400
C227        C  0.47028041  0.19271068  0.58324868     1.11800
O228        O  0.35597900  0.27360240  0.54631928    -0.96500
Zr229      Zr  0.38054187  0.26146861  0.56596590     1.88900
O230        O  0.45812189  0.29413119  0.59086559    -0.73100
O231        O  0.42978949  0.20159098  0.54773613    -0.52400
O232        O  0.42607881  0.27866537  0.54835465    -0.97100
O233        O  0.36614266  0.31420388  0.56840198    -0.54300
O234        O  0.44173949  0.31563394  0.57329577    -0.73600
C235        C  0.46478887  0.32021713  0.58248634     0.98700
O236        O  0.45322248  0.24329765  0.61361710    -0.62500
O237        O  0.26290692  0.18737118  0.61224752    -0.57300
O238        O  0.39118133  0.23600104  0.61675264    -0.93900
O239        O  0.33437136  0.23689749  0.61564447    -0.92400
O240        O  0.27041963  0.10138432  0.61199242    -0.92700
O241        O  0.34134392  0.10551300  0.61293979    -0.91500
C242        C  0.36351691  0.23960379  0.62180794     1.17500
H243        H  0.25250719  0.13522242  0.58968896     0.33500
H244        H  0.39599417  0.14787067  0.59123535     0.44300
H245        H  0.38494432  0.28318947  0.59239600     0.37900
H246        H  0.35267547  0.19740272  0.54856406     0.34400
H247        H  0.30730103  0.04424745  0.59601822     0.26100
H248        H  0.43895612  0.18412979  0.54449313     0.32100
H249        H  0.44988034  0.28051665  0.55208398     0.38000
H250        H  0.27927618  0.12590794  0.61677626     0.32400
H251        H  0.25156360  0.20447327  0.61336078     0.31300
H252        H  0.28384658  0.27098034  0.59993371     0.33000
H253        H  0.38871658  0.33723744  0.56456707     0.32000
H254        H  0.36853453  0.12735736  0.61351145     0.36000
H255        H  0.45162744  0.21863562  0.61629858     0.28700
H256        H  0.23502129  0.13168618  0.54326728     0.32900
H257        H  0.37494277  0.30079433  0.54390490     0.35800
H258        H  0.24139543  0.16243975  0.60898092     0.28400
H259        H  0.47997124  0.25942344  0.61023931     0.41300
H260        H  0.39068727  0.09768315  0.57183479     0.31300
H261        H  0.32190974  0.05863207  0.58222654     0.38900
H262        H  0.36855206  0.31999291  0.57758841     0.30800
H263        H  0.41222077  0.20146717  0.54104690     0.30900
H264        H  0.27296526  0.17029299  0.53922939     0.31100
Zr265      Zr  0.74268703  0.89491942  0.44270359     2.17500
O266        O  0.76842033  0.93526907  0.46158345    -0.51200
O267        O  0.79579944  0.88198628  0.43857948    -0.74400
O268        O  0.73721785  0.85218342  0.46007833    -0.81200
O269        O  0.78287903  0.98476258  0.42215152    -0.83000
O270        O  0.67894262  0.79595811  0.45825215    -0.78600
O271        O  0.79732639  0.96057955  0.43954390    -0.90200
O272        O  0.78086633  0.84627764  0.42043650    -0.76200
O273        O  0.70858686  0.82932498  0.43542275    -0.85700
O274        O  0.75112025  0.89787184  0.42035512    -0.85400
O275        O  0.67576426  0.86974351  0.44910076    -0.72100
O276        O  0.71482352  0.93267256  0.43503531    -0.84300
Zr277      Zr  0.62274133  0.84377015  0.41061521     2.26400
Zr278      Zr  0.64200757  0.80418286  0.44122274     2.06300
Zr279      Zr  0.72273068  0.93452302  0.41264116     2.10000
Zr280      Zr  0.71710610  0.83210355  0.41317370     1.78800
O281        O  0.71319770  0.99040925  0.41060960    -0.93100
O282        O  0.71140047  0.76899747  0.41738690    -0.40900
O283        O  0.68957508  0.86899133  0.40498867    -0.77500
O284        O  0.64949797  0.80493768  0.41857958    -0.96200
O285        O  0.61392511  0.84090235  0.43302604    -0.89500
O286        O  0.65556567  0.90966865  0.41792709    -0.92300
C287        C  0.80352333  0.86449292  0.42975014     1.01400
C288        C  0.80488977  0.98785981  0.43152190     1.14300
C289        C  0.71228872  0.81733895  0.46354698     1.05100
O290        O  0.63001335  0.73764031  0.44087076    -0.94500
O291        O  0.57643957  0.75764127  0.43419400    -0.90200
O292        O  0.56998467  0.77725188  0.41456744    -0.83400
C293        C  0.55775657  0.75292410  0.42380267     1.11800
O294        O  0.67271817  0.94448613  0.45981194    -0.96500
Zr295      Zr  0.64740463  0.90627600  0.44041804     1.88900
O296        O  0.57379026  0.86303355  0.41378710    -0.73100
O297        O  0.60263995  0.79364452  0.46015822    -0.52400
O298        O  0.59872857  0.87869484  0.45720291    -0.97100
O299        O  0.66175963  0.97335635  0.43801313    -0.54300
O300        O  0.58537582  0.89636849  0.43226882    -0.73600
C301        C  0.56447587  0.87980096  0.42241038     0.98700
O302        O  0.58292019  0.81083216  0.39211963    -0.62500
O303        O  0.77479347  0.96378073  0.39693689    -0.57300
O304        O  0.64219083  0.87193016  0.38915705    -0.93900
O305        O  0.70237742  0.92496711  0.39083338    -0.92400
O306        O  0.75829083  0.85871263  0.39451752    -0.92700
O307        O  0.69115750  0.78815700  0.39508248    -0.91500
C308        C  0.67279138  0.90107322  0.38427664     1.17500
H309        H  0.77843415  0.91077342  0.41800239     0.33500
H310        H  0.63532826  0.77877360  0.41522102     0.44300
H311        H  0.64545345  0.92464762  0.41392818     0.37900
H312        H  0.67433701  0.86973082  0.45827310     0.34400
H313        H  0.73198306  0.76869323  0.41213755     0.26100
H314        H  0.59114738  0.76552557  0.46201980     0.32100
H315        H  0.60894734  0.86678963  0.46320264     0.38000
H316        H  0.77192374  0.84359661  0.39373767     0.32400
H317        H  0.78397714  0.99205475  0.39715233     0.31300
H318        H  0.73938154  0.01253563  0.40859302     0.33000
H319        H  0.64028688  0.97429543  0.44249742     0.32000
H320        H  0.68193827  0.80121687  0.38916941     0.36000
H321        H  0.58174453  0.78531754  0.39158954     0.28700
H322        H  0.78344857  0.92521958  0.46611630     0.32900
H323        H  0.65208790  0.94961304  0.46289660     0.35800
H324        H  0.79664588  0.96135792  0.40046283     0.28400
H325        H  0.55607939  0.80461702  0.39425893     0.41300
H326        H  0.63581873  0.73351710  0.43206474     0.31300
H327        H  0.72064674  0.77078877  0.42621171     0.38900
H328        H  0.65717746  0.97606596  0.42895446     0.30800
H329        H  0.62156164  0.80691604  0.46710170     0.30900
H330        H  0.74525438  0.92799881  0.46693699     0.31100
Zr331      Zr  0.87809949  0.75385523  0.56097422     2.17500
O332        O  0.92179006  0.77944535  0.54285870    -0.51200
O333        O  0.86879056  0.80970874  0.56362872    -0.74400
O334        O  0.83950436  0.74884100  0.54223219    -0.81200
O335        O  0.96142326  0.79206211  0.58440489    -0.83000
O336        O  0.78241172  0.69127269  0.54335578    -0.78600
O337        O  0.94530665  0.80404489  0.56498047    -0.90200
O338        O  0.82611126  0.79586713  0.57989550    -0.76200
O339        O  0.81081959  0.72190043  0.56639306    -0.85700
O340        O  0.87554864  0.76315396  0.58318333    -0.85400
O341        O  0.85268246  0.68665443  0.55516796    -0.72100
O342        O  0.91158581  0.72424019  0.57076712    -0.84300
Zr343      Zr  0.81443482  0.63385746  0.59346998     2.26400
Zr344      Zr  0.78535697  0.65468105  0.56131810     2.06300
Zr345      Zr  0.90752555  0.73253971  0.59302609     2.10000
Zr346      Zr  0.80819791  0.73164743  0.58840626     1.78800
O347        O  0.96176435  0.72147402  0.59679448    -0.93100
O348        O  0.74585101  0.72382543  0.58164571    -0.40900
O349        O  0.84013092  0.70142237  0.59866839    -0.77500
O350        O  0.78027650  0.66329296  0.58365446    -0.96200
O351        O  0.81747889  0.62431935  0.57132544    -0.89500
O352        O  0.88192289  0.66495545  0.58813113    -0.92300
C353        C  0.84858660  0.81828063  0.57109579     1.01400
C354        C  0.96937355  0.81228194  0.57420690     1.14300
C355        C  0.80519350  0.72427328  0.53813188     1.05100
O356        O  0.71913635  0.64185808  0.55815112    -0.94500
O357        O  0.73299285  0.59188669  0.56834102    -0.90200
O358        O  0.74774987  0.58309887  0.58839404    -0.83400
C359        C  0.72501680  0.57250731  0.57870719     1.11800
O360        O  0.92735105  0.67370517  0.54735769    -0.96500
Zr361      Zr  0.88463665  0.65653766  0.56580394     1.88900
O362        O  0.83110958  0.58227579  0.59161550    -0.73100
O363        O  0.78103307  0.61436294  0.54324508    -0.52400
O364        O  0.85784875  0.60987000  0.54842108    -0.97100
O365        O  0.95065142  0.67101065  0.57091205    -0.54300
O366        O  0.87140276  0.59471439  0.57481303    -0.73600
C367        C  0.85095011  0.57329655  0.58408578     0.98700
O368        O  0.77971498  0.59501345  0.61195621    -0.62500
O369        O  0.93376684  0.78493939  0.60864155    -0.57300
O370        O  0.83734666  0.65272578  0.61532949    -0.93900
O371        O  0.89420719  0.71052375  0.61480569    -0.92400
O372        O  0.83001070  0.77470504  0.60676181    -0.92700
O373        O  0.76202041  0.71050400  0.60592931    -0.91500
C374        C  0.86680929  0.68152786  0.62075734     1.17500
H375        H  0.88871067  0.79047910  0.58542786     0.33500
H376        H  0.75328256  0.65013583  0.58622255     0.44300
H377        H  0.89500944  0.65417277  0.59292096     0.37900
H378        H  0.85500680  0.68488652  0.54609861     0.34400
H379        H  0.74557336  0.74693257  0.58509788     0.26100
H380        H  0.75407620  0.60383545  0.54008051     0.32100
H381        H  0.83278906  0.58844325  0.55166193     0.38000
H382        H  0.81792118  0.79119618  0.60577015     0.32400
H383        H  0.96222085  0.79497714  0.60886162     0.31300
H384        H  0.97176122  0.73295538  0.60525468     0.33000
H385        H  0.95263925  0.64887609  0.56742847     0.32000
H386        H  0.75700731  0.68403761  0.60802516     0.36000
H387        H  0.75698262  0.59869911  0.61305661     0.28700
H388        H  0.91461499  0.79706428  0.53848963     0.32900
H389        H  0.93285171  0.65210268  0.54618995     0.35800
H390        H  0.93091996  0.80621206  0.60483953     0.28400
H391        H  0.76867559  0.56739272  0.60940801     0.41300
H392        H  0.71305426  0.65168218  0.56595383     0.31300
H393        H  0.74842309  0.72819005  0.57237489     0.38900
H394        H  0.95083593  0.66778822  0.58019675     0.30800
H395        H  0.79756572  0.63285707  0.53658784     0.30900
H396        H  0.91328455  0.75684817  0.53712003     0.31100
Zr397      Zr  0.08950491  0.56462009  0.10792581     2.17500
O398        O  0.11163535  0.60430065  0.12707464    -0.51200
O399        O  0.14508275  0.55578257  0.10437153    -0.74400
O400        O  0.08447547  0.52376594  0.12597221    -0.81200
O401        O  0.12764770  0.65267071  0.08709881    -0.83000
O402        O  0.02688738  0.46646868  0.12459834    -0.78600
O403        O  0.14305113  0.63049312  0.10478233    -0.90200
O404        O  0.13173505  0.51701293  0.08707755    -0.76200
O405        O  0.05967475  0.49905305  0.10062821    -0.85700
O406        O  0.09873215  0.56874642  0.08551345    -0.85400
O407        O  0.02220246  0.53546765  0.11398878    -0.72100
O408        O  0.05877117  0.59971157  0.10013582    -0.84300
Zr409      Zr  0.96972401  0.50720627  0.07576599     2.26400
Zr410      Zr  0.99231298  0.47017105  0.10612740     2.06300
Zr411      Zr  0.06680146  0.60218841  0.07767753     2.10000
Zr412      Zr  0.06891389  0.50317959  0.07836133     1.78800
O413        O  0.05213552  0.65496439  0.07778500    -0.93100
O414        O  0.06369105  0.43959265  0.08074088    -0.40900
O415        O  0.03741107  0.53653138  0.07007092    -0.77500
O416        O  0.00084609  0.47232251  0.08362922    -0.96200
O417        O  0.96047293  0.50355298  0.09813368    -0.89500
O418        O  0.99907516  0.57314245  0.08299552    -0.92300
C419        C  0.15385473  0.53708533  0.09633068     1.01400
C420        C  0.15000965  0.65694740  0.09652438     1.14300
C421        C  0.05957093  0.48950141  0.12996423     1.05100
O422        O  0.98715464  0.40640299  0.10483447    -0.94500
O423        O  0.92863351  0.42018193  0.09875305    -0.90200
O424        O  0.91942140  0.43949274  0.07941966    -0.83400
C425        C  0.90905418  0.41467890  0.08851133     1.11800
O426        O  0.01145349  0.60356287  0.12561533    -0.96500
Zr427      Zr  0.99087749  0.56898965  0.10548117     1.88900
O428        O  0.91841407  0.52402250  0.07860441    -0.73100
O429        O  0.95235708  0.45610721  0.12505389    -0.52400
O430        O  0.94334168  0.53811286  0.12240841    -0.97100
O431        O  0.00092037  0.63475817  0.10443104    -0.54300
O432        O  0.92927197  0.55821993  0.09688677    -0.73600
C433        C  0.90874416  0.54114642  0.08704001     0.98700
O434        O  0.92701143  0.46492858  0.05900243    -0.62500
O435        O  0.11647970  0.63967112  0.06185216    -0.57300
O436        O  0.98830453  0.53539945  0.05443150    -0.93900
O437        O  0.04539014  0.59268814  0.05565336    -0.92400
O438        O  0.11336205  0.53239369  0.06059600    -0.92700
O439        O  0.04523420  0.46338924  0.05927760    -0.91500
C440        C  0.01664444  0.56599514  0.04934041     1.17500
H441        H  0.12622889  0.58285545  0.08325340     0.33500
H442        H  0.98810650  0.44611240  0.08023278     0.44300
H443        H  0.98758540  0.58696302  0.07901942     0.37900
H444        H  0.02023688  0.53504803  0.12318056     0.34400
H445        H  0.08733772  0.44233446  0.07656553     0.26100
H446        H  0.93249793  0.46321838  0.12276277     0.32100
H447        H  0.92718159  0.55072847  0.12216829     0.38000
H448        H  0.12202017  0.51352170  0.05852337     0.32400
H449        H  0.12421801  0.66727124  0.06337964     0.31300
H450        H  0.04908938  0.65940373  0.06873223     0.33000
H451        H  0.97817272  0.63312797  0.10890772     0.32000
H452        H  0.02306901  0.46639395  0.05642057     0.36000
H453        H  0.91635124  0.47985981  0.05473773     0.28700
H454        H  0.13356968  0.60141144  0.13025564     0.32900
H455        H  0.03998642  0.61407539  0.12588073     0.35800
H456        H  0.13955113  0.63760700  0.06425881     0.28400
H457        H  0.94413651  0.46256121  0.05267007     0.41300
H458        H  0.01398939  0.41148076  0.10628470     0.31300
H459        H  0.06804952  0.43762803  0.08987977     0.38900
H460        H  0.99670518  0.63847814  0.09542301     0.30800
H461        H  0.93775662  0.42731049  0.12563750     0.30900
H462        H  0.09048571  0.59042749  0.13333956     0.31100
Zr463      Zr  0.23371102  0.43851850  0.22766544     2.17500
O464        O  0.26844153  0.46167645  0.20761652    -0.51200
O465        O  0.22832112  0.49650821  0.23164355    -0.74400
O466        O  0.19010393  0.43202843  0.21037812    -0.81200
O467        O  0.32554373  0.47475283  0.24666827    -0.83000
O468        O  0.13084209  0.37943154  0.21418869    -0.78600
O469        O  0.30307635  0.48607632  0.22837038    -0.90200
O470        O  0.18640646  0.48326289  0.24807816    -0.76200
O471        O  0.16912888  0.41055891  0.23571533    -0.85700
O472        O  0.24022543  0.45079942  0.24990438    -0.85400
O473        O  0.20223143  0.37019303  0.22237932    -0.72100
O474        O  0.26797245  0.40697964  0.23547398    -0.84300
Zr475      Zr  0.17726043  0.32307247  0.26161357     2.26400
Zr476      Zr  0.13799677  0.34236076  0.23123323     2.06300
Zr477      Zr  0.27341334  0.41866307  0.25778152     2.10000
Zr478      Zr  0.17517534  0.42278845  0.25774567     1.78800
O479        O  0.32437768  0.40177349  0.26016063    -0.93100
O480        O  0.10977563  0.41273139  0.25477514    -0.40900
O481        O  0.20872203  0.39166730  0.26607054    -0.77500
O482        O  0.14226531  0.35386431  0.25361935    -0.96200
O483        O  0.17099075  0.31069232  0.23945689    -0.89500
O484        O  0.24213977  0.34999815  0.25350434    -0.92300
C485        C  0.20823907  0.50529406  0.23913225     1.01400
C486        C  0.33048479  0.49411207  0.23638499     1.14300
C487        C  0.15375407  0.41003753  0.20780302     1.05100
O488        O  0.07275724  0.33384429  0.23060152    -0.94500
O489        O  0.08797725  0.28036391  0.23984669    -0.90200
O490        O  0.10918947  0.27193808  0.25895164    -0.83400
C491        C  0.08350090  0.26114831  0.25010474     1.11800
O492        O  0.26731830  0.35368519  0.21053360    -0.96500
Zr493      Zr  0.23508909  0.33832388  0.23116229     1.88900
O494        O  0.19184361  0.27016227  0.25939921    -0.73100
O495        O  0.12561733  0.29780313  0.21364441    -0.52400
O496        O  0.19845088  0.28651232  0.21584561    -0.97100
O497        O  0.30058035  0.34735032  0.23209898    -0.54300
O498        O  0.22364277  0.27777917  0.24076701    -0.73600
C499        C  0.20756069  0.25890914  0.25096710     0.98700
O500        O  0.13718971  0.28516980  0.27951842    -0.62500
O501        O  0.31165435  0.47313562  0.27205439    -0.57300
O502        O  0.20856094  0.34532357  0.28236117    -0.93900
O503        O  0.26518524  0.40265326  0.28016720    -0.92400
O504        O  0.20549011  0.47338967  0.27383875    -0.92700
O505        O  0.14068460  0.40507061  0.27792567    -0.91500
C506        C  0.23923142  0.37488528  0.28692782     1.17500
H507        H  0.25512373  0.47832029  0.25175767     0.33500
H508        H  0.11656233  0.34201997  0.25728747     0.44300
H509        H  0.25589531  0.33853859  0.25750823     0.37900
H510        H  0.20070341  0.36710782  0.21327044     0.34400
H511        H  0.10941734  0.43370495  0.25977886     0.26100
H512        H  0.09684382  0.28245922  0.21297979     0.32100
H513        H  0.21156379  0.27080583  0.21566093     0.38000
H514        H  0.18818110  0.48465394  0.27456197     0.32400
H515        H  0.33889161  0.47876979  0.27119249     0.31300
H516        H  0.31919287  0.38850759  0.26847247     0.33000
H517        H  0.29754859  0.32219324  0.22921943     0.32000
H518        H  0.14266398  0.38242969  0.28089897     0.36000
H519        H  0.15257238  0.27564064  0.28412256     0.28700
H520        H  0.26260430  0.48187457  0.20460739     0.32900
H521        H  0.27174151  0.33182784  0.20844404     0.35800
H522        H  0.31149857  0.49591320  0.26827461     0.28400
H523        H  0.13562472  0.30401784  0.28531238     0.41300
H524        H  0.06914911  0.34238781  0.23906541     0.31300
H525        H  0.10911325  0.41998300  0.24584080     0.38900
H526        H  0.30654731  0.34855386  0.24124485     0.30800
H527        H  0.13413085  0.31437213  0.20597751     0.30900
H528        H  0.25485399  0.43972121  0.20159681     0.31100
Zr529      Zr  0.64609215  0.84287796  0.23145498     2.17500
O530        O  0.61993410  0.86068209  0.21340641    -0.51200
O531        O  0.59527393  0.77470100  0.23393354    -0.74400
O532        O  0.65188334  0.81298464  0.21203581    -0.81200
O533        O  0.60477732  0.88512386  0.25527797    -0.83000
O534        O  0.70963996  0.81444257  0.21261054    -0.78600
O535        O  0.59178381  0.85299690  0.23641362    -0.90200
O536        O  0.61137388  0.74954708  0.25072486    -0.76200
O537        O  0.68085771  0.81045153  0.23684856    -0.85700
O538        O  0.63880019  0.83275803  0.25375652    -0.85400
O539        O  0.71231565  0.88635626  0.22497282    -0.72100
O540        O  0.67401466  0.90676278  0.24065883    -0.84300
Zr541      Zr  0.76857026  0.90763781  0.26278622     2.26400
Zr542      Zr  0.74684649  0.85369909  0.23088891     2.06300
Zr543      Zr  0.66733446  0.89622178  0.26297314     2.10000
Zr544      Zr  0.67395584  0.80055308  0.25902868     1.78800
O545        O  0.66922244  0.95815630  0.26579171    -0.93100
O546        O  0.68462459  0.74732539  0.25291820    -0.40900
O547        O  0.70202126  0.86367899  0.26870324    -0.77500
O548        O  0.74106839  0.84337141  0.25340760    -0.96200
O549        O  0.77537266  0.91688762  0.24046187    -0.89500
O550        O  0.73382527  0.94021777  0.25735506    -0.92300
C551        C  0.58880465  0.74675230  0.24153626     1.01400
C552        C  0.58339173  0.86927137  0.24547822     1.14300
C553        C  0.67649143  0.80422269  0.20738566     1.05100
O554        O  0.75853725  0.79973830  0.22728522    -0.94500
O555        O  0.81083798  0.86702396  0.23783205    -0.90200
O556        O  0.82443730  0.90129853  0.25627517    -0.83400
C557        C  0.83323307  0.88534700  0.24721387     1.11800
O558        O  0.71559173  0.96442416  0.21602967    -0.96500
Zr559      Zr  0.74095153  0.94942858  0.23498289     1.88900
O560        O  0.81675464  0.97745376  0.26109909    -0.73100
O561        O  0.78800420  0.89247748  0.21338218    -0.52400
O562        O  0.79025349  0.97286334  0.21833020    -0.97100
O563        O  0.72428468  0.99972172  0.23946792    -0.54300
O564        O  0.80223879  0.00123731  0.24378575    -0.73600
C565        C  0.82428439  0.00533763  0.25329912     0.98700
O566        O  0.80347123  0.89966757  0.28047351    -0.62500
O567        O  0.62170290  0.86575215  0.28040693    -0.57300
O568        O  0.75401043  0.91990610  0.28443908    -0.93900
O569        O  0.69408751  0.91431184  0.28400201    -0.92400
O570        O  0.63058125  0.77557225  0.27726211    -0.92700
O571        O  0.70352328  0.78432746  0.27646958    -0.91500
C572        C  0.72501816  0.92043202  0.28982600     1.17500
H573        H  0.61181043  0.81734425  0.25613058     0.33500
H574        H  0.75596821  0.83132294  0.25603018     0.44300
H575        H  0.74367249  0.96462829  0.26189364     0.37900
H576        H  0.71322404  0.88965802  0.21582349     0.34400
H577        H  0.66604315  0.72499562  0.25816588     0.26100
H578        H  0.80261952  0.87928686  0.21089142     0.32100
H579        H  0.80272790  0.00163204  0.21856636     0.38000
H580        H  0.64040378  0.79787767  0.28320284     0.32400
H581        H  0.60667392  0.87953539  0.28083782     0.31300
H582        H  0.64552438  0.95161717  0.27077193     0.33000
H583        H  0.73858333  0.02036882  0.23310628     0.32000
H584        H  0.72252627  0.80982984  0.28020152     0.36000
H585        H  0.80316611  0.87489942  0.27885305     0.28700
H586        H  0.60049043  0.83579093  0.20945264     0.32900
H587        H  0.73665234  0.98983217  0.21288593     0.35800
H588        H  0.60294235  0.83922220  0.27736063     0.28400
H589        H  0.83107251  0.92026808  0.27955523     0.41300
H590        H  0.74287273  0.78040623  0.23386735     0.31300
H591        H  0.67409596  0.74029476  0.24420383     0.38900
H592        H  0.73732300  0.01147412  0.24760452     0.30800
H593        H  0.76989491  0.88760397  0.20624942     0.30900
H594        H  0.64161569  0.87281214  0.20722723     0.31100
Zr595      Zr  0.51012621  0.58340448  0.10847344     2.17500
O596        O  0.47573844  0.57184166  0.12859408    -0.51200
O597        O  0.51805237  0.64667637  0.10382329    -0.74400
O598        O  0.55490839  0.62251568  0.12529168    -0.81200
O599        O  0.41775431  0.53002019  0.08914817    -0.83000
O600        O  0.61050167  0.61911636  0.12348449    -0.78600
O601        O  0.44284202  0.56895461  0.10648841    -0.90200
O602        O  0.55393208  0.66901505  0.08581188    -0.76200
O603        O  0.57502542  0.61596786  0.10039752    -0.85700
O604        O  0.50453100  0.58721338  0.08611948    -0.85400
O605        O  0.53799053  0.54408516  0.11448246    -0.72100
O606        O  0.47181164  0.51740548  0.10125440    -0.84300
Zr607      Zr  0.56010267  0.51439778  0.07601062     2.26400
Zr608      Zr  0.60261007  0.57627120  0.10573399     2.06300
Zr609      Zr  0.46794861  0.52163604  0.07879534     2.10000
Zr610      Zr  0.56943484  0.61996145  0.07818886     1.78800
O611        O  0.41207106  0.45599935  0.07731018    -0.93100
O612        O  0.63291872  0.67768767  0.08164900    -0.40900
O613        O  0.53283606  0.55453530  0.07053493    -0.77500
O614        O  0.59880517  0.58107110  0.08317614    -0.96200
O615        O  0.56531218  0.51046320  0.09837436    -0.89500
O616        O  0.49508269  0.48128134  0.08402243    -0.92300
C617        C  0.53490772  0.67240940  0.09515633     1.01400
C618        C  0.41490990  0.54853944  0.09871411     1.14300
C619        C  0.58942905  0.63135058  0.12881555     1.05100
O620        O  0.66756158  0.63344229  0.10444606    -0.94500
O621        O  0.64895979  0.55782435  0.09779881    -0.90200
O622        O  0.62793208  0.53034410  0.07840376    -0.83400
C623        C  0.65292979  0.54289456  0.08746941     1.11800
O624        O  0.46421575  0.46478341  0.12623931    -0.96500
Zr625      Zr  0.50062195  0.47878240  0.10648196     1.88900
O626        O  0.54530687  0.44789094  0.08076691    -0.73100
O627        O  0.61872104  0.54933140  0.12396008    -0.52400
O628        O  0.52964958  0.46302353  0.12416469    -0.97100
O629        O  0.43409383  0.42448813  0.10439082    -0.54300
O630        O  0.50948940  0.42640657  0.09867226    -0.73600
C631        C  0.52739006  0.42179430  0.08931543     0.98700
O632        O  0.58678927  0.50196999  0.05686112    -0.62500
O633        O  0.43952986  0.54712709  0.06374485    -0.57300
O634        O  0.52832747  0.50308405  0.05512374    -0.93900
O635        O  0.47178622  0.50429919  0.05709212    -0.92400
O636        O  0.54366276  0.63426292  0.05929522    -0.92700
O637        O  0.61033319  0.63561724  0.05938336    -0.91500
C638        C  0.49697937  0.50061612  0.05051526     1.17500
H639        H  0.49090059  0.60087109  0.08394392     0.33500
H640        H  0.62458126  0.59321602  0.07953094     0.44300
H641        H  0.48022823  0.45581631  0.08026884     0.37900
H642        H  0.53929490  0.54333082  0.12364058     0.34400
H643        H  0.63164364  0.69870971  0.07699674     0.26100
H644        H  0.64587491  0.56918221  0.12611573     0.32100
H645        H  0.55648633  0.47112216  0.12134237     0.38000
H646        H  0.56115848  0.66251177  0.05784227     0.32400
H647        H  0.41107124  0.52878975  0.06408989     0.31300
H648        H  0.39581900  0.45756878  0.07047025     0.33000
H649        H  0.43402775  0.40274870  0.10902832     0.32000
H650        H  0.61797333  0.61537179  0.05898588     0.36000
H651        H  0.60980722  0.52724908  0.05457861     0.28700
H652        H  0.48102149  0.59783728  0.13147494     0.32900
H653        H  0.44592546  0.47464504  0.12490752     0.35800
H654        H  0.44303368  0.57152534  0.06755120     0.28400
H655        H  0.59748763  0.48518229  0.05948879     0.41300
H656        H  0.67321520  0.63795817  0.09526923     0.31300
H657        H  0.63300241  0.68433870  0.09069948     0.38900
H658        H  0.43126767  0.41651865  0.09538913     0.30800
H659        H  0.60289144  0.55046562  0.13103429     0.30900
H660        H  0.49008018  0.56443195  0.13461779     0.31100
Zr661      Zr  0.49156778  0.98261692  0.10666705     2.17500
O662        O  0.50590989  0.95793297  0.12586840    -0.51200
O663        O  0.42644503  0.92802660  0.10287910    -0.74400
O664        O  0.45624493  0.98839857  0.12457477    -0.81200
O665        O  0.53740039  0.94138574  0.08471182    -0.83000
O666        O  0.46402446  0.04940524  0.12461125    -0.78600
O667        O  0.50448103  0.92953208  0.10335586    -0.90200
O668        O  0.40093889  0.94371918  0.08617183    -0.76200
O669        O  0.45920116  0.01686008  0.10048619    -0.85700
O670        O  0.48252623  0.97362094  0.08437685    -0.85400
O671        O  0.53441684  0.04932838  0.11281354    -0.72100
O672        O  0.55576661  0.00944960  0.09785304    -0.84300
Zr673      Zr  0.55632946  0.10241376  0.07463284     2.26400
Zr674      Zr  0.50200409  0.08348268  0.10602076     2.06300
Zr675      Zr  0.54623936  0.00155533  0.07548844     2.10000
Zr676      Zr  0.45011580  0.00778025  0.07829398     1.78800
O677        O  0.60921180  0.00585576  0.07258126    -0.93100
O678        O  0.39239163  0.01270173  0.08283407    -0.40900
O679        O  0.51349355  0.03547230  0.06895210    -0.77500
O680        O  0.49188787  0.07530687  0.08359099    -0.96200
O681        O  0.56574451  0.11131407  0.09695229    -0.89500
O682        O  0.58934116  0.06850663  0.08073647    -0.92300
C683        C  0.39885623  0.92030030  0.09497821     1.01400
C684        C  0.52157340  0.92082533  0.09467133     1.14300
C685        C  0.45069216  0.01512855  0.12925735     1.05100
O686        O  0.44568633  0.09236071  0.10787689    -0.94500
O687        O  0.51499326  0.14662611  0.09829933    -0.90200
O688        O  0.54852613  0.15836320  0.07977268    -0.83400
C689        C  0.53241162  0.16775695  0.08860458     1.11800
O690        O  0.61531799  0.05426603  0.12212271    -0.96500
Zr691      Zr  0.59768034  0.07663160  0.10309155     1.88900
O692        O  0.62514695  0.15139110  0.07656624    -0.73100
O693        O  0.53682796  0.12593072  0.12382535    -0.52400
O694        O  0.62341820  0.12234121  0.12071364    -0.97100
O695        O  0.64690760  0.05838732  0.09875567    -0.54300
O696        O  0.64846663  0.13813555  0.09434541    -0.73600
C697        C  0.65237982  0.15944183  0.08465964     0.98700
O698        O  0.54663821  0.13324457  0.05610076    -0.62500
O699        O  0.51638241  0.95017361  0.05955765    -0.57300
O700        O  0.57293193  0.08862350  0.05362584    -0.93900
O701        O  0.56472481  0.02757398  0.05430064    -0.92400
O702        O  0.43441595  0.96824913  0.05921887    -0.92700
O703        O  0.43226252  0.03631072  0.06096041    -0.91500
C704        C  0.57287658  0.05912079  0.04845778     1.17500
H705        H  0.46771235  0.94642276  0.08209480     0.33500
H706        H  0.47969972  0.08977152  0.08062705     0.44300
H707        H  0.61360681  0.07830347  0.07635725     0.37900
H708        H  0.53735549  0.05104354  0.12195074     0.34400
H709        H  0.37138486  0.99176385  0.07771668     0.26100
H710        H  0.55782472  0.15000623  0.11989900     0.32100
H711        H  0.61798172  0.14338713  0.11844450     0.38000
H712        H  0.40726052  0.96119939  0.05719039     0.32400
H713        H  0.53429798  0.93965126  0.05874570     0.31300
H714        H  0.60321708  0.98170628  0.06797069     0.33000
H715        H  0.66935679  0.07588667  0.10416001     0.32000
H716        H  0.45751184  0.05666356  0.05745529     0.36000
H717        H  0.52172424  0.13281503  0.05756620     0.28700
H718        H  0.48020954  0.93920795  0.12953285     0.32900
H719        H  0.59968056  0.02547077  0.12165941     0.35800
H720        H  0.49273638  0.92895314  0.06361400     0.28400
H721        H  0.56707029  0.16108468  0.05650776     0.41300
H722        H  0.43123829  0.08189317  0.09984359     0.31300
H723        H  0.38551971  0.00377371  0.09170901     0.38900
H724        H  0.65583349  0.06722979  0.08999734     0.30800
H725        H  0.51850367  0.13369691  0.12732151     0.30900
H726        H  0.51725005  0.98024130  0.13183087     0.31100
Zr727      Zr  0.24561608  0.85830106  0.23157887     2.17500
O728        O  0.23297517  0.82205795  0.21183126    -0.51200
O729        O  0.31088706  0.86986764  0.23540779    -0.74400
O730        O  0.28180350  0.90059610  0.21398761    -0.81200
O731        O  0.19817279  0.76851324  0.25252565    -0.83000
O732        O  0.28698673  0.95960269  0.21690214    -0.78600
O733        O  0.23322726  0.79210307  0.23438433    -0.90200
O734        O  0.33396310  0.90524164  0.25347023    -0.76200
O735        O  0.28029028  0.92284173  0.23976815    -0.85700
O736        O  0.24888361  0.85186125  0.25390675    -0.85400
O737        O  0.20791675  0.88761169  0.22526669    -0.72100
O738        O  0.17893348  0.82178412  0.23846642    -0.84300
Zr739      Zr  0.17994069  0.91165929  0.26362190     2.26400
Zr740      Zr  0.24232360  0.95200491  0.23398639     2.06300
Zr741      Zr  0.18275596  0.81694149  0.26087783     2.10000
Zr742      Zr  0.28309244  0.91632746  0.26201896     1.78800
O743        O  0.11845703  0.75954170  0.25852085    -0.93100
O744        O  0.33865062  0.98222154  0.26094438    -0.40900
O745        O  0.21720206  0.88140152  0.26944710    -0.77500
O746        O  0.24653856  0.94755605  0.25648625    -0.96200
O747        O  0.17667209  0.91745060  0.24131979    -0.89500
O748        O  0.14510529  0.84676409  0.25553010    -0.92300
C749        C  0.33737151  0.88721743  0.24385100     1.01400
C750        C  0.21603311  0.76535382  0.24278932     1.14300
C751        C  0.29506653  0.93634831  0.21085978     1.05100
O752        O  0.29801402  0.01787966  0.23385582    -0.94500
O753        O  0.22701713  0.00025600  0.24225510    -0.90200
O754        O  0.19100551  0.97729296  0.26030930    -0.83400
C755        C  0.20843956  0.00347538  0.25175303     1.11800
O756        O  0.12627732  0.80953327  0.21498092    -0.96500
Zr757      Zr  0.14223863  0.85301542  0.23317448     1.88900
O758        O  0.11556541  0.90309549  0.25925741    -0.73100
O759        O  0.21123816  0.96195034  0.21558223    -0.52400
O760        O  0.13167217  0.88316970  0.21466671    -0.97100
O761        O  0.07999181  0.79274682  0.23582808    -0.54300
O762        O  0.09603110  0.87257341  0.24018842    -0.73600
C763        C  0.09155568  0.88952685  0.24989772     0.98700
O764        O  0.19964949  0.95091471  0.28286381    -0.62500
O765        O  0.19745654  0.78835632  0.27892734    -0.57300
O766        O  0.14745419  0.87214497  0.28226357    -0.93900
O767        O  0.15684390  0.82029581  0.28134787    -0.92400
O768        O  0.29900861  0.88435440  0.27875176    -0.92700
O769        O  0.29637326  0.94988139  0.28233849    -0.91500
C770        C  0.14519868  0.84125412  0.28706813     1.17500
H771        H  0.26228769  0.83797935  0.25607455     0.33500
H772        H  0.25925028  0.97332105  0.26012476     0.44300
H773        H  0.11974053  0.83291964  0.25921013     0.37900
H774        H  0.20735330  0.88873119  0.21610405     0.34400
H775        H  0.35920322  0.98130006  0.26601735     0.26100
H776        H  0.22414098  0.99060266  0.21466961     0.32100
H777        H  0.10313251  0.86832299  0.21326179     0.38000
H778        H  0.27395181  0.86774434  0.28314778     0.32400
H779        H  0.18437580  0.76006484  0.27712618     0.31300
H780        H  0.11915750  0.74869524  0.25012910     0.33000
H781        H  0.06103316  0.79685093  0.23092132     0.32000
H782        H  0.27040275  0.94007551  0.28625142     0.36000
H783        H  0.20557798  0.93582051  0.28903837     0.28700
H784        H  0.25884211  0.83013346  0.20807713     0.32900
H785        H  0.10131181  0.80568988  0.21156866     0.35800
H786        H  0.22568187  0.79776840  0.27816831     0.28400
H787        H  0.22567798  0.97311387  0.28079609     0.41300
H788        H  0.31347509  0.01892817  0.24136630     0.31300
H789        H  0.34783950  0.98511085  0.25207824     0.38900
H790        H  0.07227879  0.79246829  0.24475813     0.30800
H791        H  0.22035383  0.95321375  0.20820770     0.30900
H792        H  0.22096736  0.83296797  0.20614160     0.31100
Zr793      Zr  0.82325163  0.63739594  0.77605387     2.17500
O794        O  0.84425812  0.61867497  0.79519115    -0.51200
O795        O  0.75799855  0.58115176  0.77343603    -0.74400
O796        O  0.78879002  0.64254821  0.79445394    -0.81200
O797        O  0.86970622  0.59798494  0.75349219    -0.83000
O798        O  0.78980224  0.70049951  0.79316719    -0.78600
O799        O  0.83574461  0.58412698  0.77197445    -0.90200
O800        O  0.73169883  0.59287287  0.75603085    -0.76200
O801        O  0.78737902  0.66796872  0.76977254    -0.85700
O802        O  0.81358042  0.62722586  0.75380157    -0.85400
O803        O  0.86317154  0.70512806  0.78164017    -0.72100
O804        O  0.88732746  0.66722345  0.76679198    -0.84300
Zr805      Zr  0.88125889  0.75566743  0.74312109     2.26400
Zr806      Zr  0.82729848  0.73558380  0.77464444     2.06300
Zr807      Zr  0.87698257  0.65781834  0.74444026     2.10000
Zr808      Zr  0.77739945  0.65753900  0.74770125     1.78800
O809        O  0.94141300  0.66570190  0.74127165    -0.93100
O810        O  0.72111671  0.66330375  0.75378585    -0.40900
O811        O  0.84044170  0.68807189  0.73794400    -0.77500
O812        O  0.81669049  0.72615880  0.75223326    -0.96200
O813        O  0.89071401  0.76572815  0.76532948    -0.89500
O814        O  0.91798246  0.72565278  0.74936743    -0.92300
C815        C  0.73045028  0.57120770  0.76529760     1.01400
C816        C  0.85338512  0.57632991  0.76321146     1.14300
C817        C  0.77996468  0.66778278  0.79851366     1.05100
O818        O  0.76928992  0.74191246  0.77573320    -0.94500
O819        O  0.84165470  0.79940141  0.76729347    -0.90200
O820        O  0.86594077  0.80685613  0.74733381    -0.83400
C821        C  0.85423959  0.81835761  0.75688171     1.11800
O822        O  0.94428290  0.71537580  0.79135625    -0.96500
Zr823      Zr  0.92634357  0.73524849  0.77178406     1.88900
O824        O  0.95010312  0.80645983  0.74483302    -0.73100
O825        O  0.85795107  0.77930785  0.79255585    -0.52400
O826        O  0.94546454  0.78494945  0.78818273    -0.97100
O827        O  0.98084136  0.72389477  0.76873833    -0.54300
O828        O  0.97557333  0.79697687  0.76281845    -0.73600
C829        C  0.97783080  0.81695378  0.75295788     0.98700
O830        O  0.88392690  0.79941673  0.72636401    -0.62500
O831        O  0.84943443  0.60592435  0.72862755    -0.57300
O832        O  0.88302529  0.73329381  0.72160129    -0.93900
O833        O  0.88958001  0.67962342  0.72259722    -0.92400
O834        O  0.76220721  0.61725033  0.72878230    -0.92700
O835        O  0.74801596  0.67559128  0.73069442    -0.91500
C836        C  0.88704664  0.70611948  0.71642754     1.17500
H837        H  0.79979678  0.59987806  0.75169657     0.33500
H838        H  0.80311043  0.73916269  0.74921724     0.44300
H839        H  0.94245112  0.73635765  0.74490531     0.37900
H840        H  0.86636058  0.70749868  0.79069571     0.34400
H841        H  0.69822076  0.63749712  0.75188336     0.26100
H842        H  0.83709519  0.78325082  0.79616945     0.32100
H843        H  0.93636074  0.80264376  0.78511212     0.38000
H844        H  0.73339578  0.60122725  0.72870670     0.32400
H845        H  0.86634066  0.59412088  0.72874086     0.31300
H846        H  0.95106607  0.66610802  0.74994289     0.33000
H847        H  0.00265624  0.74490370  0.77357319     0.32000
H848        H  0.76425191  0.70429765  0.73010266     0.36000
H849        H  0.90752890  0.80610212  0.72131661     0.28700
H850        H  0.85179635  0.64061231  0.80115457     0.32900
H851        H  0.97016717  0.73729964  0.79379692     0.35800
H852        H  0.82427832  0.58565844  0.73220502     0.28400
H853        H  0.86161420  0.78353798  0.72066191     0.41300
H854        H  0.75956794  0.73824403  0.76691468     0.31300
H855        H  0.72195764  0.66474765  0.76315195     0.38900
H856        H  0.98839199  0.73050100  0.75975598     0.30800
H857        H  0.86214959  0.76360102  0.79898092     0.30900
H858        H  0.86937256  0.62053087  0.79287586     0.31100
Zr859      Zr  0.56257493  0.51530697  0.89861274     2.17500
O860        O  0.54648976  0.47745538  0.87907427    -0.51200
O861        O  0.62818401  0.52718347  0.90210203    -0.74400
O862        O  0.59821761  0.55679620  0.88089093    -0.81200
O863        O  0.51437875  0.42630866  0.91939541    -0.83000
O864        O  0.60748395  0.61704004  0.88443494    -0.78600
O865        O  0.54907111  0.44863912  0.90111420    -0.90200
O866        O  0.65244680  0.56385719  0.91984882    -0.76200
O867        O  0.59842828  0.58015074  0.90653822    -0.85700
O868        O  0.56697872  0.51013208  0.92096325    -0.85400
O869        O  0.52581559  0.54566453  0.89237684    -0.72100
O870        O  0.49637941  0.47938907  0.90586837    -0.84300
Zr871      Zr  0.49843717  0.57050859  0.93057649     2.26400
Zr872      Zr  0.56134780  0.61026043  0.90094381     2.06300
Zr873      Zr  0.50125933  0.47572485  0.92828440     2.10000
Zr874      Zr  0.60190624  0.57510548  0.92877834     1.78800
O875        O  0.43687916  0.41774664  0.92788385    -0.93100
O876        O  0.65420095  0.64252236  0.92686210    -0.40900
O877        O  0.53619707  0.54072381  0.93634866    -0.77500
O878        O  0.56521396  0.60652066  0.92353107    -0.96200
O879        O  0.49533770  0.57587961  0.90823776    -0.89500
O880        O  0.46337294  0.50532883  0.92280549    -0.92300
C881        C  0.65541521  0.54532082  0.91027777     1.01400
C882        C  0.53157337  0.42233252  0.90962107     1.14300
C883        C  0.61407390  0.59311335  0.87815699     1.05100
O884        O  0.61828697  0.67534901  0.90223321    -0.94500
O885        O  0.54487116  0.65843411  0.90815542    -0.90200
O886        O  0.51052473  0.63647070  0.92647403    -0.83400
C887        C  0.52682384  0.66214604  0.91768770     1.11800
O888        O  0.44630643  0.47033802  0.88158668    -0.96500
Zr889      Zr  0.46034871  0.51104449  0.90040269     1.88900
O890        O  0.43206632  0.55752607  0.92674075    -0.73100
O891        O  0.53696267  0.62520461  0.88183425    -0.52400
O892        O  0.44720110  0.54005815  0.88209646    -0.97100
O893        O  0.39995562  0.44927778  0.90347407    -0.54300
O894        O  0.41278768  0.52840563  0.90746642    -0.73600
C895        C  0.40777101  0.54381518  0.91746368     0.98700
O896        O  0.50698895  0.60577201  0.95031227    -0.62500
O897        O  0.52174389  0.45012757  0.94576504    -0.57300
O898        O  0.47591742  0.53569962  0.95069515    -0.93900
O899        O  0.47774257  0.47978434  0.94911691    -0.92400
O900        O  0.62267144  0.54696108  0.94541231    -0.92700
O901        O  0.61528636  0.60678662  0.94944504    -0.91500
C902        C  0.47145140  0.50378649  0.95542693     1.17500
H903        H  0.58039977  0.49618234  0.92309439     0.33500
H904        H  0.57782695  0.63238941  0.92719353     0.44300
H905        H  0.43760021  0.49124900  0.92664122     0.37900
H906        H  0.52504588  0.54671409  0.88325580     0.34400
H907        H  0.67558256  0.64414933  0.93215814     0.26100
H908        H  0.55491973  0.65339264  0.88048732     0.32100
H909        H  0.41842986  0.52593818  0.88131034     0.38000
H910        H  0.59856494  0.52974834  0.95019249     0.32400
H911        H  0.51067271  0.42205068  0.94392301     0.31300
H912        H  0.43801355  0.40061663  0.93448750     0.33000
H913        H  0.38962566  0.45128961  0.91181160     0.32000
H914        H  0.60811688  0.62728534  0.94854394     0.36000
H915        H  0.53510601  0.62525931  0.95057679     0.28700
H916        H  0.57138684  0.48046217  0.87593430     0.32900
H917        H  0.41866385  0.46104082  0.87948140     0.35800
H918        H  0.55021248  0.46179093  0.94464276     0.28400
H919        H  0.49346422  0.62091101  0.94923656     0.41300
H920        H  0.62140505  0.68210219  0.91135701     0.31300
H921        H  0.66363129  0.64491747  0.91803968     0.38900
H922        H  0.40842059  0.42988138  0.90477557     0.30800
H923        H  0.54295222  0.61239027  0.87482807     0.30900
H924        H  0.53941002  0.49165461  0.87288731     0.31100
Zr925      Zr  0.41633256  0.21643282  0.77429736     2.17500
O926        O  0.44087631  0.25197742  0.79417092    -0.51200
O927        O  0.47142119  0.20726230  0.76986912    -0.74400
O928        O  0.40939739  0.17373447  0.79169582    -0.81200
O929        O  0.45839684  0.30730726  0.75438803    -0.83000
O930        O  0.34968065  0.11881809  0.79058140    -0.78600
O931        O  0.46977773  0.28293879  0.77233567    -0.90200
O932        O  0.45884412  0.17178974  0.75180216    -0.76200
O933        O  0.38454904  0.15125839  0.76663521    -0.85700
O934        O  0.42655278  0.22093130  0.75202514    -0.85400
O935        O  0.34887897  0.18884599  0.78013985    -0.72100
O936        O  0.38831395  0.25421943  0.76682777    -0.84300
Zr937      Zr  0.29878740  0.16530764  0.74153379     2.26400
Zr938      Zr  0.31716635  0.12393923  0.77177207     2.06300
Zr939      Zr  0.39807687  0.25748520  0.74443881     2.10000
Zr940      Zr  0.39435555  0.15563642  0.74442277     1.78800
O941        O  0.39464716  0.31697361  0.74301849    -0.93100
O942        O  0.39019421  0.09369279  0.74956861    -0.40900
O943        O  0.36634042  0.19244500  0.73610216    -0.77500
O944        O  0.32646307  0.12733471  0.74930033    -0.96200
O945        O  0.28862725  0.16036355  0.76384906    -0.89500
O946        O  0.33043628  0.23040929  0.74942782    -0.92300
C947        C  0.48092219  0.19093945  0.76115342     1.01400
C948        C  0.47897662  0.31028484  0.76421566     1.14300
C949        C  0.38300028  0.14045713  0.79579284     1.05100
O950        O  0.31410864  0.06101621  0.77088288    -0.94500
O951        O  0.25345176  0.07650776  0.76353182    -0.90200
O952        O  0.24321060  0.10034286  0.74520314    -0.83400
C953        C  0.23278264  0.07402231  0.75381121     1.11800
O954        O  0.34107638  0.25736393  0.79228366    -0.96500
Zr955      Zr  0.32028748  0.22511929  0.77174083     1.88900
O956        O  0.24718992  0.18127660  0.74435511    -0.73100
O957        O  0.27187332  0.10736567  0.78940594    -0.52400
O958        O  0.27078990  0.19802105  0.78828247    -0.97100
O959        O  0.33490033  0.29232310  0.76960631    -0.54300
O960        O  0.25873338  0.21425900  0.76295252    -0.73600
C961        C  0.23795223  0.19796639  0.75305258     0.98700
O962        O  0.26845710  0.12232008  0.72344263    -0.62500
O963        O  0.44926669  0.27908286  0.72847035    -0.57300
O964        O  0.31367538  0.20188466  0.72160160    -0.93900
O965        O  0.37224534  0.25662547  0.72363359    -0.92400
O966        O  0.43503757  0.17982247  0.72559586    -0.92700
O967        O  0.36718472  0.10955864  0.72689730    -0.91500
C968        C  0.34201442  0.23375032  0.71712603     1.17500
H969        H  0.45379227  0.23444926  0.74987580     0.33500
H970        H  0.31261659  0.10143833  0.74566906     0.44300
H971        H  0.32011745  0.24535273  0.74550465     0.37900
H972        H  0.34660455  0.18802025  0.78924517     0.34400
H973        H  0.41122769  0.09348486  0.74455505     0.26100
H974        H  0.26703723  0.08159488  0.79233967     0.32100
H975        H  0.25110145  0.17196787  0.78510459     0.38000
H976        H  0.44421547  0.16104840  0.72409813     0.32400
H977        H  0.47378480  0.28704685  0.73314112     0.31300
H978        H  0.41714530  0.33452251  0.73763868     0.33000
H979        H  0.31142130  0.29214193  0.77290932     0.32000
H980        H  0.35945826  0.12279418  0.72054004     0.36000
H981        H  0.24924228  0.12905525  0.72011415     0.28700
H982        H  0.46069575  0.24558059  0.79718658     0.32900
H983        H  0.32584858  0.27064341  0.79370294     0.35800
H984        H  0.44389517  0.25494724  0.72397806     0.28400
H985        H  0.28884363  0.13073567  0.71683239     0.41300
H986        H  0.31255705  0.05470174  0.76174564     0.31300
H987        H  0.39916966  0.09639499  0.75846301     0.38900
H988        H  0.33459277  0.29672765  0.76039396     0.30800
H989        H  0.28716263  0.12558465  0.79630749     0.30900
H990        H  0.41905241  0.23918236  0.80027587     0.31100
Zr991      Zr  0.54852433  0.09732338  0.89728346     2.17500
O992        O  0.58567345  0.12056078  0.87768558    -0.51200
O993        O  0.53797478  0.15192150  0.90047482    -0.74400
O994        O  0.50688763  0.09152545  0.87951448    -0.81200
O995        O  0.63867854  0.13865715  0.91812739    -0.83000
O996        O  0.44874957  0.03600887  0.88182785    -0.78600
O997        O  0.61558102  0.14998731  0.89985402    -0.90200
O998        O  0.50270113  0.14114714  0.91852037    -0.76200
O999        O  0.48429018  0.06942603  0.90566868    -0.85700
O1000       O  0.55582555  0.10886762  0.91954364    -0.85400
O1001       O  0.51688055  0.02951040  0.89155751    -0.72100
O1002       O  0.58350704  0.06595002  0.90449778    -0.84300
Zr1003     Zr  0.49267524  0.97984055  0.93016018     2.26400
Zr1004     Zr  0.45275378  0.00179357  0.90041613     2.06300
Zr1005     Zr  0.58901247  0.07627327  0.92689506     2.10000
Zr1006     Zr  0.49168583  0.08025208  0.92786754     1.78800
O1007       O  0.64541481  0.06738464  0.92550379    -0.93100
O1008       O  0.42854876  0.07672029  0.92796155    -0.40900
O1009       O  0.52478834  0.04788334  0.93544918    -0.77500
O1010       O  0.45845902  0.01198561  0.92281798    -0.96200
O1011       O  0.48593962  0.96930846  0.90790305    -0.89500
O1012       O  0.55747916  0.00829259  0.92198570    -0.92300
C1013       C  0.52049734  0.16153548  0.90872214     1.01400
C1014       C  0.64228426  0.15923894  0.90826670     1.14300
C1015       C  0.47182587  0.06774866  0.87594590     1.05100
O1016       O  0.39282960  0.00442385  0.90173925    -0.94500
O1017       O  0.40186316  0.94007970  0.90904083    -0.90200
O1018       O  0.42600017  0.92693521  0.92657745    -0.83400
C1019       C  0.39838160  0.91840942  0.91857575     1.11800
O1020       O  0.58405133  0.01676230  0.87938472    -0.96500
Zr1021     Zr  0.55024854  0.99754773  0.89969233     1.88900
O1022       O  0.50398449  0.92496682  0.92704343    -0.73100
O1023       O  0.43108802  0.95492965  0.88309985    -0.52400
O1024       O  0.51590326  0.94908292  0.88322087    -0.97100
O1025       O  0.61415714  0.00270016  0.90099971    -0.54300
O1026       O  0.53801428  0.93598336  0.90864538    -0.73600
C1027       C  0.52085232  0.91544371  0.91845855     0.98700
O1028       O  0.45204488  0.96028797  0.94917195    -0.62500
O1029       O  0.61939438  0.12207509  0.94432411    -0.57300
O1030       O  0.52981999  0.98950078  0.94964301    -0.93900
O1031       O  0.58241705  0.04997921  0.94809735    -0.92400
O1032       O  0.52804087  0.12640129  0.94470307    -0.92700
O1033       O  0.45662303  0.05947554  0.94789501    -0.91500
C1034       C  0.56040624  0.01878772  0.95437334     1.17500
H1035       H  0.57037862  0.13636032  0.92151295     0.33500
H1036       H  0.43278838  0.99986242  0.92661577     0.44300
H1037       H  0.57139778  0.99659544  0.92579953     0.37900
H1038       H  0.51517584  0.02679525  0.88234166     0.34400
H1039       H  0.43381917  0.10224694  0.93133300     0.26100
H1040       H  0.43893142  0.93579614  0.88562725     0.32100
H1041       H  0.49590012  0.92572628  0.88775301     0.38000
H1042       H  0.52089979  0.14695716  0.94398861     0.32400
H1043       H  0.64735851  0.13799826  0.94213425     0.31300
H1044       H  0.65774747  0.07935744  0.91730487     0.33000
H1045       H  0.60971223  0.97678862  0.89837068     0.32000
H1046       H  0.47159143  0.05053717  0.95302066     0.36000
H1047       H  0.46432509  0.98342256  0.95478288     0.28700
H1048       H  0.57935969  0.13996713  0.87421908     0.32900
H1049       H  0.58981416  0.99591572  0.87709913     0.35800
H1050       H  0.60888083  0.14000583  0.94366001     0.28400
H1051       H  0.42720287  0.95873530  0.94669416     0.41300
H1052       H  0.38941503  0.00745305  0.91088434     0.31300
H1053       H  0.42246160  0.07724280  0.91889794     0.38900
H1054       H  0.61998556  0.00415133  0.91016193     0.30800
H1055       H  0.40228776  0.94041029  0.88377264     0.30900
H1056       H  0.57343797  0.09820684  0.87175585     0.31100
Zr1057     Zr  0.96692523  0.50487227  0.89388549     2.17500
O1058       O  0.94586710  0.52504933  0.87513007    -0.51200
O1059       O  0.91138558  0.43925909  0.89644275    -0.74400
O1060       O  0.97178465  0.46922730  0.87585549    -0.81200
O1061       O  0.92631265  0.55058004  0.91567893    -0.83000
O1062       O  0.02762167  0.46669522  0.87811563    -0.78600
O1063       O  0.91418462  0.51850352  0.89684510    -0.90200
O1064       O  0.92348671  0.41282521  0.91371130    -0.76200
O1065       O  0.99585193  0.46845899  0.90124088    -0.85700
O1066       O  0.95587801  0.49800681  0.91617407    -0.85400
O1067       O  0.03483169  0.54269195  0.88822566    -0.72100
O1068       O  0.99762074  0.57010104  0.90221141    -0.84300
Zr1069     Zr  0.08431090  0.56417530  0.92697430     2.26400
Zr1070     Zr  0.06365119  0.50631821  0.89630387     2.06300
Zr1071     Zr  0.98794005  0.56275593  0.92455868     2.10000
Zr1072     Zr  0.98478699  0.46151161  0.92336092     1.78800
O1073       O  0.00174605  0.62996256  0.92449615    -0.93100
O1074       O  0.99299636  0.40498720  0.92083849    -0.40900
O1075       O  0.01640236  0.52571009  0.93213877    -0.77500
O1076       O  0.05360175  0.49851989  0.91877962    -0.96200
O1077       O  0.09509768  0.57110593  0.90470411    -0.89500
O1078       O  0.05587393  0.60147074  0.91972418    -0.92300
C1079       C  0.90223317  0.41108875  0.90424383     1.01400
C1080       C  0.90554476  0.53486405  0.90577708     1.14300
C1081       C  0.99552607  0.45773462  0.87240194     1.05100
O1082       O  0.06556362  0.44601954  0.89626855    -0.94500
O1083       O  0.12661840  0.51837150  0.90424468    -0.90200
O1084       O  0.13521670  0.54752421  0.92342884    -0.83400
C1085       C  0.14621836  0.53318152  0.91446458     1.11800
O1086       O  0.03990785  0.62657985  0.87953418    -0.96500
Zr1087     Zr  0.06580344  0.60706564  0.89729779     1.88900
O1088       O  0.13440698  0.63261653  0.92508932    -0.73100
O1089       O  0.10750667  0.53330553  0.87826801    -0.52400
O1090       O  0.10818797  0.61905811  0.87907784    -0.97100
O1091       O  0.06755785  0.66897556  0.90060851    -0.54300
O1092       O  0.12980833  0.65324677  0.90546223    -0.73600
C1093       C  0.14727713  0.65772120  0.91608332     0.98700
O1094       O  0.12919561  0.56915974  0.94367136    -0.62500
O1095       O  0.94047383  0.55186696  0.94108112    -0.57300
O1096       O  0.06281342  0.57014133  0.94829133    -0.93900
O1097       O  0.00653326  0.57173609  0.94667033    -0.92400
O1098       O  0.93637849  0.44468983  0.94001691    -0.92700
O1099       O  0.00101891  0.44127020  0.94311744    -0.91500
C1100       C  0.03417501  0.57238667  0.95316396     1.17500
H1101       H  0.92822613  0.48452895  0.91818421     0.33500
H1102       H  0.06603911  0.48484104  0.92221887     0.44300
H1103       H  0.06705996  0.62645560  0.92391473     0.37900
H1104       H  0.03743636  0.54465677  0.87912535     0.34400
H1105       H  0.96892918  0.38306526  0.92445036     0.26100
H1106       H  0.13064143  0.55684733  0.88163739     0.32100
H1107       H  0.12475176  0.64777360  0.87864335     0.38000
H1108       H  0.93921467  0.46992933  0.94270865     0.32400
H1109       H  0.93088589  0.57012791  0.93924377     0.31300
H1110       H  0.99514115  0.63408680  0.91580105     0.33000
H1111       H  0.08894976  0.68790367  0.89511665     0.32000
H1112       H  0.02935504  0.45093432  0.94252270     0.36000
H1113       H  0.13565664  0.59309581  0.94850636     0.28700
H1114       H  0.92859227  0.50070573  0.87046134     0.32900
H1115       H  0.06247937  0.64943140  0.87561960     0.35800
H1116       H  0.91803371  0.52562244  0.93937812     0.28400
H1117       H  0.11377933  0.54734315  0.94954993     0.41300
H1118       H  0.05987090  0.43671426  0.90513073     0.31300
H1119       H  0.99071599  0.39998318  0.91160184     0.38900
H1120       H  0.07752686  0.67725250  0.90932517     0.30800
H1121       H  0.11671425  0.51458232  0.87670733     0.30900
H1122       H  0.96961521  0.53890205  0.86985816     0.31100
Zr1123     Zr  0.83388167  0.23330786  0.77415072     2.17500
O1124       O  0.79291650  0.21886403  0.79287389    -0.51200
O1125       O  0.84592929  0.29918431  0.77052282    -0.74400
O1126       O  0.87333258  0.26654859  0.79268497    -0.81200
O1127       O  0.74714741  0.18606547  0.75190213    -0.83000
O1128       O  0.93051853  0.26629060  0.79118534    -0.78600
O1129       O  0.76809645  0.22073392  0.77024738    -0.90200
O1130       O  0.88218429  0.32218291  0.75256773    -0.76200
O1131       O  0.90024460  0.26664378  0.76766128    -0.85700
O1132       O  0.83322205  0.24070617  0.75180361    -0.85400
O1133       O  0.85924322  0.19191840  0.78043828    -0.72100
O1134       O  0.79751535  0.16850677  0.76563755    -0.84300
Zr1135     Zr  0.89077971  0.16912564  0.74230577     2.26400
Zr1136     Zr  0.92559758  0.22521995  0.77335867     2.06300
Zr1137     Zr  0.79856996  0.17641574  0.74319779     2.10000
Zr1138     Zr  0.89959943  0.27435644  0.74541921     1.78800
O1139       O  0.74068541  0.11230072  0.74118470    -0.93100
O1140       O  0.96200485  0.33034919  0.75144253    -0.40900
O1141       O  0.86527433  0.21041392  0.73638170    -0.77500
O1142       O  0.92714796  0.23423888  0.75084310    -0.96200
O1143       O  0.89066263  0.16110495  0.76465395    -0.89500
O1144       O  0.82399561  0.13466007  0.74862111    -0.92300
C1145       C  0.86308768  0.32522287  0.76191970     1.01400
C1146       C  0.74241464  0.20303763  0.76156603     1.14300
C1147       C  0.90774618  0.27624643  0.79658771     1.05100
O1148       O  0.99197509  0.27927024  0.77569579    -0.94500
O1149       O  0.97539024  0.21130159  0.76581271    -0.90200
O1150       O  0.95720878  0.18367689  0.74631207    -0.83400
C1151       C  0.98121430  0.19714532  0.75563002     1.11800
O1152       O  0.78408337  0.11166391  0.79015096    -0.96500
Zr1153     Zr  0.82426219  0.12804847  0.77109698     1.88900
O1154       O  0.87290286  0.10086840  0.74499629    -0.73100
O1155       O  0.93184861  0.19088184  0.79152959    -0.52400
O1156       O  0.84800502  0.10497097  0.78844687    -0.97100
O1157       O  0.75754185  0.07655355  0.76687660    -0.54300
O1158       O  0.83733681  0.07833927  0.76303494    -0.73600
C1159       C  0.85510086  0.07446101  0.75345505     0.98700
O1160       O  0.93249288  0.16714056  0.72562906    -0.62500
O1161       O  0.77632846  0.20413190  0.72680433    -0.57300
O1162       O  0.86340756  0.16093121  0.72093657    -0.93900
O1163       O  0.80478756  0.15828936  0.72185174    -0.92400
O1164       O  0.87424672  0.28778927  0.72622662    -0.92700
O1165       O  0.94604820  0.29876919  0.72794416    -0.91500
C1166       C  0.83224577  0.15716794  0.71580979     1.17500
H1167       H  0.82015923  0.25483987  0.74945440     0.33500
H1168       H  0.95379384  0.24702546  0.74786063     0.44300
H1169       H  0.80985522  0.10986906  0.74431165     0.37900
H1170       H  0.85821171  0.18947451  0.78962217     0.34400
H1171       H  0.96286498  0.35276550  0.74700722     0.26100
H1172       H  0.95980290  0.20607508  0.79382439     0.32100
H1173       H  0.87431856  0.11072380  0.78576788     0.38000
H1174       H  0.88632931  0.31651334  0.72598958     0.32400
H1175       H  0.74787556  0.18604142  0.72612792     0.31300
H1176       H  0.72431148  0.11581440  0.73483354     0.33000
H1177       H  0.75392191  0.05412110  0.77201894     0.32000
H1178       H  0.96410798  0.28879601  0.72955499     0.36000
H1179       H  0.91678009  0.14185516  0.72124668     0.28700
H1180       H  0.80084545  0.24439387  0.79686580     0.32900
H1181       H  0.77634694  0.08440428  0.79228434     0.35800
H1182       H  0.77878957  0.22819315  0.73053658     0.28400
H1183       H  0.93595963  0.18721700  0.71936261     0.41300
H1184       H  0.99875974  0.29185872  0.76726038     0.31300
H1185       H  0.95914323  0.33495005  0.76050426     0.38900
H1186       H  0.75758556  0.06844746  0.75801144     0.30800
H1187       H  0.91829503  0.19575586  0.79857022     0.30900
H1188       H  0.80205765  0.20566034  0.79874457     0.31100
C1189       C  0.95914531  0.41445735  0.83950175    -0.05400
C1190       C  0.96222117  0.38055857  0.84000588     0.08800
C1191       C  0.97626019  0.37194084  0.85109010    -0.02800
C1192       C  0.98643337  0.39669006  0.86174667    -0.01000
C1193       C  0.98467711  0.43153435  0.86115051    -0.04600
C1194       C  0.97127756  0.44039063  0.84988101     0.02400
C1195       C  0.94905623  0.35299453  0.82900740     0.09200
C1196       C  0.97925678  0.33692484  0.85155188     0.35100
C1197       C  0.97089794  0.47664558  0.84870880     0.38600
C1198       C  0.97212242  0.36229569  0.81797070    -0.05000
C1199       C  0.95865680  0.33719341  0.80738585     0.02200
C1200       C  0.92267575  0.30175943  0.80795148    -0.04600
C1201       C  0.90057964  0.29164183  0.81926500    -0.00800
C1202       C  0.91324265  0.31765159  0.82962091    -0.03400
C1203       C  0.00978635  0.39775350  0.81750965     0.35900
C1204       C  0.86568427  0.25381898  0.82052190     0.39500
C1205       C  0.98117168  0.34883854  0.79574295     0.38600
C1206       C  0.88928412  0.30835435  0.84091827     0.35500
C1207       C  0.94248398  0.42201859  0.82836357     0.36200
C1208       C  0.99615906  0.38471406  0.87352921     0.39500
N1209       N  0.99918229  0.35847620  0.78647243    -0.38600
N1210       N  0.03993613  0.42589919  0.81709452    -0.40200
N1211       N  0.83811438  0.22354376  0.82178772    -0.37900
N1212       N  0.87042952  0.30129582  0.84997203    -0.40300
N1213       N  0.98126137  0.30877905  0.85175720    -0.40100
N1214       N  0.00326283  0.37441582  0.88289709    -0.37700
N1215       N  0.97068164  0.50554986  0.84749040    -0.38800
N1216       N  0.92889495  0.42763117  0.81947830    -0.40400
C1217       C  0.32355587  0.81250409  0.92765554    -0.05400
C1218       C  0.29032238  0.80675219  0.92102448     0.08800
C1219       C  0.29089779  0.83815735  0.91466669    -0.02800
C1220       C  0.32527119  0.87496060  0.91435436    -0.01000
C1221       C  0.36016165  0.88068848  0.92027942    -0.04600
C1222       C  0.35804722  0.84928559  0.92754038     0.02400
C1223       C  0.25473993  0.76716229  0.92033794     0.09200
C1224       C  0.25569884  0.83215028  0.90835735     0.35100
C1225       C  0.39093088  0.85396742  0.93497762     0.38600
C1226       C  0.22631186  0.75419187  0.92998577    -0.05000
C1227       C  0.19189567  0.71759115  0.92893245     0.02200
C1228       C  0.18505295  0.69448009  0.91794480    -0.04600
C1229       C  0.21419443  0.70720441  0.90846544    -0.00800
C1230       C  0.24893953  0.74328549  0.90970694    -0.03400
C1231       C  0.23205272  0.77913835  0.94080120     0.35900
C1232       C  0.20897080  0.68265270  0.89757431     0.39500
C1233       C  0.16329265  0.70425562  0.93905249     0.38600
C1234       C  0.27874514  0.75625681  0.89997087     0.35500
C1235       C  0.32231035  0.77997941  0.93438543     0.36200
C1236       C  0.32327040  0.90680666  0.90835193     0.39500
N1237       N  0.14072218  0.69350426  0.94720497    -0.38600
N1238       N  0.23658101  0.79918884  0.94938408    -0.40200
N1239       N  0.20474557  0.66295603  0.88891694    -0.37900
N1240       N  0.30266529  0.76684003  0.89225216    -0.40300
N1241       N  0.22737812  0.82677525  0.90339170    -0.40100
N1242       N  0.32021598  0.93139474  0.90356200    -0.37700
N1243       N  0.41695512  0.85753396  0.94099246    -0.38800
N1244       N  0.32107679  0.75385809  0.93969889    -0.40400
C1245       C  0.82574922  0.30254566  0.90358781    -0.05400
C1246       C  0.79090843  0.30363840  0.90222120     0.08800
C1247       C  0.79277220  0.33976280  0.90029799    -0.02800
C1248       C  0.82917703  0.37477506  0.90027558    -0.01000
C1249       C  0.86415798  0.37403951  0.90245152    -0.04600
C1250       C  0.86216162  0.33743288  0.90357164     0.02400
C1251       C  0.75216748  0.26690649  0.90352779     0.09200
C1252       C  0.75691789  0.34079721  0.89866462     0.35100
C1253       C  0.89755610  0.33519008  0.90412042     0.38600
C1254       C  0.73155935  0.25878717  0.91506494    -0.05000
C1255       C  0.69548080  0.22405464  0.91654063     0.02200
C1256       C  0.67992562  0.19651098  0.90655103    -0.04600
C1257       C  0.70045789  0.20498202  0.89491971    -0.00800
C1258       C  0.73632381  0.24008487  0.89341548    -0.03400
C1259       C  0.74774377  0.28637844  0.92546288     0.35900
C1260       C  0.68535230  0.17718460  0.88456529     0.39500
C1261       C  0.67354932  0.21796962  0.92814332     0.38600
C1262       C  0.75709444  0.24861195  0.88146417     0.35500
C1263       C  0.82401342  0.26538197  0.90529955     0.36200
C1264       C  0.83020558  0.41139772  0.89813864     0.39500
N1265       N  0.65636225  0.21408914  0.93741182    -0.38600
N1266       N  0.76086358  0.30856479  0.93369648    -0.40200
N1267       N  0.67351921  0.15513510  0.87626320    -0.37900
N1268       N  0.77365301  0.25534410  0.87192519    -0.40300
N1269       N  0.72815148  0.34133615  0.89744815    -0.40100
N1270       N  0.83062450  0.44032605  0.89618739    -0.37700
N1271       N  0.92531948  0.33250041  0.90436460    -0.38800
N1272       N  0.82259622  0.23572413  0.90665662    -0.40400
C1273       C  0.16240268  0.23081747  0.75519641    -0.05400
C1274       C  0.12755137  0.19601991  0.75242684     0.08800
C1275       C  0.12907664  0.16240425  0.74901527    -0.02800
C1276       C  0.16513087  0.16310541  0.74884492    -0.01000
C1277       C  0.20023260  0.19786371  0.75185694    -0.04600
C1278       C  0.19861771  0.23206330  0.75454490     0.02400
C1279       C  0.08918594  0.19493118  0.75304992     0.09200
C1280       C  0.09326486  0.12697965  0.74578696     0.35100
C1281       C  0.23428078  0.26921241  0.75589993     0.38600
C1282       C  0.07574285  0.20692496  0.74255762    -0.05000
C1283       C  0.04091241  0.20838763  0.74342821     0.02200
C1284       C  0.01816626  0.19595784  0.75462298    -0.04600
C1285       C  0.03064802  0.18179687  0.76485397    -0.00800
C1286       C  0.06643367  0.18218610  0.76417319    -0.03400
C1287       C  0.09759217  0.21732058  0.73079256     0.35900
C1288       C  0.00579463  0.16499280  0.77585971     0.39500
C1289       C  0.02944054  0.22412188  0.73294529     0.38600
C1290       C  0.07980744  0.16921587  0.77490957     0.35500
C1291       C  0.16088870  0.26529461  0.75891790     0.36200
C1292       C  0.16560357  0.12766224  0.74580306     0.39500
N1293       N  0.02055278  0.23695013  0.72459450    -0.38600
N1294       N  0.11469684  0.22522288  0.72134239    -0.40200
N1295       N  0.98571335  0.15118777  0.78455751    -0.37900
N1296       N  0.09044043  0.15887942  0.78349024    -0.40300
N1297       N  0.06455034  0.09890755  0.74319450    -0.40100
N1298       N  0.16544210  0.09917434  0.74325911    -0.37700
N1299       N  0.26242416  0.29924161  0.75671956    -0.38800
N1300       N  0.15968771  0.29272672  0.76198339    -0.40400
C1301       C  0.57398025  0.19562854  0.77342917    -0.05400
C1302       C  0.59517505  0.20202069  0.76209373     0.08800
C1303       C  0.58032049  0.20762848  0.75067034    -0.02800
C1304       C  0.54340124  0.20477530  0.75043295    -0.01000
C1305       C  0.52067833  0.19563527  0.76163267    -0.04600
C1306       C  0.53691079  0.19253072  0.77324370     0.02400
C1307       C  0.63306925  0.20237448  0.76217899     0.09200
C1308       C  0.60354998  0.21724243  0.73920028     0.35100
C1309       C  0.51605218  0.18674817  0.78507779     0.38600
C1310       C  0.63360214  0.16754855  0.75998095    -0.05000
C1311       C  0.66910802  0.16739658  0.76037620     0.02200
C1312       C  0.70461576  0.20245689  0.76255300    -0.04600
C1313       C  0.70384327  0.23729000  0.76487748    -0.00800
C1314       C  0.66820833  0.23724670  0.76456129    -0.03400
C1315       C  0.59758363  0.13207782  0.75695817     0.35900
C1316       C  0.73963389  0.27351580  0.76734627     0.39500
C1317       C  0.66882566  0.13080239  0.75902945     0.38600
C1318       C  0.66775065  0.27336868  0.76623354     0.35500
C1319       C  0.59064954  0.19265656  0.78532333     0.36200
C1320       C  0.53029118  0.21407336  0.73880429     0.39500
N1321       N  0.66858473  0.10158269  0.75807480    -0.38600
N1322       N  0.56883508  0.10400261  0.75439680    -0.40200
N1323       N  0.76787982  0.30256537  0.76946984    -0.37900
N1324       N  0.66747054  0.30226144  0.76743678    -0.40300
N1325       N  0.62213286  0.22519586  0.73005977    -0.40100
N1326       N  0.52058508  0.22221358  0.72951253    -0.37700
N1327       N  0.50004022  0.18292393  0.79460453    -0.38800
N1328       N  0.60405061  0.19055418  0.79482460    -0.40400
C1329       C  0.42672005  0.09809836  0.81808557    -0.05400
C1330       C  0.41614331  0.10641984  0.82998937     0.08800
C1331       C  0.39272398  0.12400404  0.83057739    -0.02800
C1332       C  0.38124400  0.13457478  0.81933010    -0.01000
C1333       C  0.39208002  0.12644469  0.80748354    -0.04600
C1334       C  0.41418878  0.10758491  0.80685420     0.02400
C1335       C  0.42978799  0.09667600  0.84191171     0.09200
C1336       C  0.38058147  0.13127830  0.84276378     0.35100
C1337       C  0.42428277  0.09827634  0.79462518     0.38600
C1338       C  0.45861618  0.12654297  0.84944773    -0.05000
C1339       C  0.47153660  0.11738359  0.86070215     0.02200
C1340       C  0.45707595  0.07777836  0.86423691    -0.04600
C1341       C  0.42840715  0.04795279  0.85639987    -0.00800
C1342       C  0.41422989  0.05751798  0.84553973    -0.03400
C1343       C  0.47522156  0.16690883  0.84552093     0.35900
C1344       C  0.41399813  0.00707574  0.85899734     0.39500
C1345       C  0.49900995  0.14932759  0.86864019     0.38600
C1346       C  0.38350427  0.02689233  0.83797912     0.35500
C1347       C  0.45089477  0.08019522  0.81739848     0.36200
C1348       C  0.35897213  0.15453816  0.81992235     0.39500
N1349       N  0.52091743  0.17545716  0.87474291    -0.38600
N1350       N  0.48831934  0.19902079  0.84236509    -0.40200
N1351       N  0.40178857  0.97413485  0.86067388    -0.37900
N1352       N  0.35910624  0.00259741  0.83190861    -0.40300
N1353       N  0.37102894  0.13709775  0.85250622    -0.40100
N1354       N  0.34133170  0.17058785  0.82038159    -0.37700
N1355       N  0.43233259  0.09090764  0.78486545    -0.38800
N1356       N  0.46999516  0.06571210  0.81685531    -0.40400
C1357       C  0.82698110  0.55791398  0.89589718    -0.05400
C1358       C  0.79849396  0.53769194  0.90530628     0.08800
C1359       C  0.80443267  0.51486378  0.91431588    -0.02800
C1360       C  0.83885590  0.51279287  0.91406306    -0.01000
C1361       C  0.86813201  0.53447556  0.90505220    -0.04600
C1362       C  0.86219313  0.55704974  0.89594968     0.02400
C1363       C  0.76227021  0.54062623  0.90590424     0.09200
C1364       C  0.77511650  0.49357253  0.92390264     0.35100
C1365       C  0.89303393  0.58084462  0.88708882     0.38600
C1366       C  0.72629944  0.50892730  0.90207578    -0.05000
C1367       C  0.69161942  0.51043284  0.90341749     0.02200
C1368       C  0.69252028  0.54411356  0.90858398    -0.04600
C1369       C  0.72917015  0.57622539  0.91220160    -0.00800
C1370       C  0.76367815  0.57427919  0.91091775    -0.03400
C1371       C  0.72502563  0.47418085  0.89703116     0.35900
C1372       C  0.73213196  0.61183666  0.91707877     0.39500
C1373       C  0.65510342  0.47631388  0.89982731     0.38600
C1374       C  0.80080760  0.60667850  0.91502907     0.35500
C1375       C  0.81980647  0.57933517  0.88615344     0.36200
C1376       C  0.84387997  0.48769500  0.92294897     0.39500
N1377       N  0.62641145  0.44882694  0.89682423    -0.38600
N1378       N  0.72427236  0.44648587  0.89314573    -0.40200
N1379       N  0.73539801  0.64058329  0.92102150    -0.37900
N1380       N  0.83049336  0.63237395  0.91829395    -0.40300
N1381       N  0.75167192  0.47641680  0.93151694    -0.40100
N1382       N  0.84770266  0.46734772  0.92992818    -0.37700
N1383       N  0.91788246  0.60017954  0.88013824    -0.38800
N1384       N  0.81374892  0.59613115  0.87835395    -0.40400
C1385       C  0.25384995  0.57024124  0.92220070    -0.05400
C1386       C  0.25816236  0.53855727  0.91836682     0.08800
C1387       C  0.22548157  0.50429218  0.91388544    -0.02800
C1388       C  0.18899311  0.50231079  0.91259970    -0.01000
C1389       C  0.18462141  0.53460218  0.91600157    -0.04600
C1390       C  0.21750234  0.56856154  0.92093093     0.02400
C1391       C  0.29757812  0.54181706  0.91852955     0.09200
C1392       C  0.22942415  0.47069248  0.91085190     0.35100
C1393       C  0.21475398  0.60260704  0.92431575     0.38600
C1394       C  0.30970312  0.52859426  0.92904969    -0.05000
C1395       C  0.34617030  0.53019227  0.92889496     0.02200
C1396       C  0.37098072  0.54539766  0.91823662    -0.04600
C1397       C  0.35951418  0.56041106  0.90797159    -0.00800
C1398       C  0.32272327  0.55798724  0.90803275    -0.03400
C1399       C  0.28439557  0.51298924  0.93999217     0.35900
C1400       C  0.38622377  0.58002060  0.89756745     0.39500
C1401       C  0.35766692  0.51526896  0.93959242     0.38600
C1402       C  0.31050608  0.57181149  0.89720785     0.35500
C1403       C  0.28694130  0.60440279  0.92765726     0.36200
C1404       C  0.15605912  0.46638903  0.90805623     0.39500
N1405       N  0.36699876  0.50352476  0.94813410    -0.38600
N1406       N  0.26427024  0.50059202  0.94874835    -0.40200
N1407       N  0.40746984  0.59620844  0.88930876    -0.37900
N1408       N  0.30079973  0.58273546  0.88854152    -0.40300
N1409       N  0.23267194  0.44386449  0.90859939    -0.40100
N1410       N  0.13057566  0.43716938  0.90439939    -0.37700
N1411       N  0.21301466  0.62996555  0.92708208    -0.38800
N1412       N  0.31336107  0.63134487  0.93213328    -0.40400
C1413       C  0.55975656  0.27041501  0.90463865    -0.05400
C1414       C  0.52539222  0.27255891  0.90583492     0.08800
C1415       C  0.48913875  0.23801483  0.90722135    -0.02800
C1416       C  0.48726549  0.20151747  0.90751366    -0.01000
C1417       C  0.52184725  0.19943416  0.90699507    -0.04600
C1418       C  0.55804771  0.23405224  0.90528908     0.02400
C1419       C  0.52775686  0.31143593  0.90652121     0.09200
C1420       C  0.45391400  0.24021566  0.90881720     0.35100
C1421       C  0.59387700  0.23263331  0.90468079     0.38600
C1422       C  0.51740129  0.32634774  0.89602795    -0.05000
C1423       C  0.51939287  0.36293987  0.89685571     0.02200
C1424       C  0.53154610  0.38477201  0.90827290    -0.04600
C1425       C  0.54297922  0.37000664  0.91862121    -0.00800
C1426       C  0.54050154  0.33333019  0.91779636    -0.03400
C1427       C  0.50406964  0.30356343  0.88445567     0.35900
C1428       C  0.55928055  0.39317440  0.92997311     0.39500
C1429       C  0.50797257  0.37734053  0.88600686     0.38600
C1430       C  0.55068558  0.31765357  0.92862885     0.35500
C1431       C  0.59710443  0.30588284  0.90318301     0.36200
C1432       C  0.44959108  0.16611079  0.90788728     0.39500
N1433       N  0.49878030  0.38821918  0.87720662    -0.38600
N1434       N  0.49318968  0.28509488  0.87529083    -0.40200
N1435       N  0.57298020  0.41114266  0.93908410    -0.37900
N1436       N  0.55866383  0.30474299  0.93717996    -0.40300
N1437       N  0.42590372  0.24209395  0.91017339    -0.40100
N1438       N  0.41933650  0.13806130  0.90799156    -0.37700
N1439       N  0.62260117  0.23177901  0.90414882    -0.38800
N1440       N  0.62692592  0.33416116  0.90210877    -0.40400
C1441       C  0.52667930  0.75218738  0.93088746    -0.05400
C1442       C  0.51957044  0.76780782  0.91986240     0.08800
C1443       C  0.51466109  0.74861319  0.90815489    -0.02800
C1444       C  0.51587757  0.71365578  0.90751125    -0.01000
C1445       C  0.52434962  0.69856262  0.91847600    -0.04600
C1446       C  0.53068975  0.71874945  0.93011505     0.02400
C1447       C  0.51932495  0.80561610  0.92038034     0.09200
C1448       C  0.50874481  0.76516709  0.89668286     0.35100
C1449       C  0.54447490  0.70732153  0.94111735     0.38600
C1450       C  0.55470353  0.84115042  0.92191580    -0.05000
C1451       C  0.55504942  0.87697496  0.92168209     0.02200
C1452       C  0.52011153  0.87766950  0.91968919    -0.04600
C1453       C  0.48509334  0.84226695  0.91755309    -0.00800
C1454       C  0.48444885  0.80633951  0.91826850    -0.03400
C1455       C  0.59108651  0.84090333  0.92309035     0.35900
C1456       C  0.45081437  0.84309768  0.91319854     0.39500
C1457       C  0.59172328  0.91322285  0.92295570     0.38600
C1458       C  0.44819998  0.77010228  0.91625316     0.35500
C1459       C  0.52989992  0.77060352  0.94306512     0.36200
C1460       C  0.50764386  0.69311755  0.89551106     0.39500
N1461       N  0.62118978  0.94198089  0.92386984    -0.38600
N1462       N  0.62005931  0.84059072  0.92394590    -0.40200
N1463       N  0.42391445  0.84389770  0.90931235    -0.37900
N1464       N  0.41948732  0.74110193  0.91451708    -0.40300
N1465       N  0.50394080  0.77838507  0.88755753    -0.40100
N1466       N  0.50087405  0.67711941  0.88586334    -0.37700
N1467       N  0.55644989  0.69943559  0.94993747    -0.38800
N1468       N  0.53222127  0.78504862  0.95280972    -0.40400
C1469       C  0.04786626  0.92611449  0.74730780    -0.05400
C1470       C  0.08407482  0.92947413  0.75033165     0.08800
C1471       C  0.08591952  0.89574545  0.75320151    -0.02800
C1472       C  0.05159963  0.85892502  0.75358346    -0.01000
C1473       C  0.01470011  0.85531557  0.75111910    -0.04600
C1474       C  0.01328762  0.88929751  0.74770187     0.02400
C1475       C  0.12062557  0.96854614  0.75074440     0.09200
C1476       C  0.12351376  0.89919661  0.75581937     0.35100
C1477       C  0.97627648  0.88700633  0.74502734     0.38600
C1478       C  0.13098815  0.99100009  0.76195124    -0.05000
C1479       C  0.16720952  0.02587868  0.76282592     0.02200
C1480       C  0.19380365  0.03823130  0.75257268    -0.04600
C1481       C  0.18307573  0.01594571  0.74127679    -0.00800
C1482       C  0.14646844  0.98146843  0.74034567    -0.03400
C1483       C  0.10467134  0.97764086  0.77271072     0.35900
C1484       C  0.21046305  0.02702559  0.73085455     0.39500
C1485       C  0.17675327  0.04940886  0.77423245     0.38600
C1486       C  0.13567988  0.95847094  0.72880895     0.35500
C1487       C  0.04639774  0.96078608  0.74384850     0.36200
C1488       C  0.05493362  0.82484996  0.75624160     0.39500
N1489       N  0.18426602  0.06823382  0.78331190    -0.38600
N1490       N  0.08375004  0.96695446  0.78131444    -0.40200
N1491       N  0.23217457  0.03530158  0.72251460    -0.37900
N1492       N  0.12692056  0.93994814  0.71963936    -0.40300
N1493       N  0.15367653  0.90234078  0.75783450    -0.40100
N1494       N  0.05880273  0.79833378  0.75833182    -0.37700
N1495       N  0.94693230  0.88550190  0.74282296    -0.38800
N1496       N  0.04555452  0.98859326  0.74105770    -0.40400
C1497       C  0.64681178  0.47038706  0.75612272    -0.05400
C1498       C  0.62579652  0.45747985  0.76755767     0.08800
C1499       C  0.64022390  0.48080915  0.77852126    -0.02800
C1500       C  0.67494046  0.51748854  0.77797190    -0.01000
C1501       C  0.69508317  0.53148277  0.76632374    -0.04600
C1502       C  0.68128705  0.50702184  0.75549842     0.02400
C1503       C  0.58774079  0.41971192  0.76785407     0.09200
C1504       C  0.61884163  0.46697167  0.79031709     0.35100
C1505       C  0.70349920  0.51845249  0.74380244     0.38600
C1506       C  0.58685251  0.38417380  0.77006112    -0.05000
C1507       C  0.55120660  0.34845660  0.76937984     0.02200
C1508       C  0.51614117  0.34796781  0.76619553    -0.04600
C1509       C  0.51712004  0.38387425  0.76442697    -0.00800
C1510       C  0.55267336  0.41945621  0.76530700    -0.03400
C1511       C  0.62292873  0.38441263  0.77268828     0.35900
C1512       C  0.48142083  0.38450428  0.76194522     0.39500
C1513       C  0.55121803  0.31230828  0.77149987     0.38600
C1514       C  0.55330500  0.45602472  0.76344861     0.35500
C1515       C  0.63273557  0.44580325  0.74494343     0.36200
C1516       C  0.68954321  0.54068841  0.78940459     0.39500
N1517       N  0.55158171  0.28369168  0.77328557    -0.38600
N1518       N  0.65175125  0.38463134  0.77471902    -0.40200
N1519       N  0.45306563  0.38525323  0.75997732    -0.37900
N1520       N  0.55373252  0.48517590  0.76200109    -0.40300
N1521       N  0.60137121  0.45549527  0.79964198    -0.40100
N1522       N  0.70115592  0.55867624  0.79863572    -0.37700
N1523       N  0.72104160  0.52686273  0.73443689    -0.38800
N1524       N  0.62148447  0.42612744  0.73604458    -0.40400
C1525       C  0.82204991  0.96623086  0.75599036    -0.05400
C1526       C  0.85662044  0.96590392  0.75315900     0.08800
C1527       C  0.89034128  0.00078407  0.74963961    -0.02800
C1528       C  0.88997626  0.03629188  0.74942503    -0.01000
C1529       C  0.85523110  0.03685159  0.75235109    -0.04600
C1530       C  0.82097647  0.00118397  0.75520369     0.02400
C1531       C  0.85731929  0.92853121  0.75390008     0.09200
C1532       C  0.92552374  0.99987863  0.74642723     0.35100
C1533       C  0.78398854  0.99980185  0.75689432     0.38600
C1534       C  0.84022382  0.90050288  0.74417766    -0.05000
C1535       C  0.83904848  0.86444078  0.74515269     0.02200
C1536       C  0.85552699  0.85637909  0.75580324    -0.04600
C1537       C  0.87374913  0.88505485  0.76534945    -0.00800
C1538       C  0.87430408  0.92084107  0.76444354    -0.03400
C1539       C  0.82387015  0.90893562  0.73314857     0.35900
C1540       C  0.89324991  0.87844217  0.77588821     0.39500
C1541       C  0.81976287  0.83522453  0.73535609     0.38600
C1542       C  0.89240312  0.94989649  0.77435550     0.35500
C1543       C  0.78776572  0.93053604  0.76005229     0.36200
C1544       C  0.92588246  0.07211569  0.74665550     0.39500
N1545       N  0.80432832  0.81191945  0.72754616    -0.38600
N1546       N  0.81090097  0.91580008  0.72435964    -0.40200
N1547       N  0.90901814  0.87336880  0.78426974    -0.37900
N1548       N  0.90695910  0.97320665  0.78221642    -0.40300
N1549       N  0.95324917  0.99848377  0.74391252    -0.40100
N1550       N  0.95486071  0.10033433  0.74441942    -0.37700
N1551       N  0.75402851  0.99783266  0.75810578    -0.38800
N1552       N  0.76069212  0.90200905  0.76338668    -0.40400
C1553       C  0.88997232  0.50379039  0.76120470    -0.05400
C1554       C  0.85555144  0.46816907  0.76358546     0.08800
C1555       C  0.82087445  0.46822104  0.76659362    -0.02800
C1556       C  0.82027857  0.50356645  0.76684163    -0.01000
C1557       C  0.85456518  0.53933864  0.76413406    -0.04600
C1558       C  0.88967689  0.53923484  0.76166778     0.02400
C1559       C  0.85623629  0.43067329  0.76332346     0.09200
C1560       C  0.78574695  0.43173002  0.76945720     0.35100
C1561       C  0.92609613  0.57565139  0.76020567     0.38600
C1562       C  0.87207071  0.42052774  0.77363301    -0.05000
C1563       C  0.87416480  0.38599718  0.77324831     0.02200
C1564       C  0.85989607  0.36103348  0.76260716    -0.04600
C1565       C  0.84232339  0.37031089  0.75255869    -0.00800
C1566       C  0.84120666  0.40536810  0.75280236    -0.03400
C1567       C  0.88616160  0.44578074  0.78465471     0.35900
C1568       C  0.82337682  0.34272649  0.74230319     0.39500
C1569       C  0.89146703  0.37650381  0.78375821     0.38600
C1570       C  0.82492758  0.41560875  0.74216403     0.35500
C1571       C  0.92580745  0.50389698  0.75824811     0.36200
C1572       C  0.78401885  0.50265284  0.76968963     0.39500
N1573       N  0.90520425  0.36909665  0.79220856    -0.38600
N1574       N  0.89729600  0.46608441  0.79341166    -0.40200
N1575       N  0.80763626  0.32050295  0.73422827    -0.37900
N1576       N  0.81203543  0.42373709  0.73364002    -0.40300
N1577       N  0.75775400  0.40260056  0.77173540    -0.40100
N1578       N  0.75490620  0.50138209  0.77209148    -0.37700
N1579       N  0.95551195  0.60439877  0.75918233    -0.38800
N1580       N  0.95438958  0.50397104  0.75590217    -0.40400
C1581       C  0.67951114  0.59622188  0.85075508    -0.05400
C1582       C  0.68831788  0.63114718  0.84461623     0.08800
C1583       C  0.67539139  0.65538054  0.84987020    -0.02800
C1584       C  0.65172028  0.64372331  0.86085558    -0.01000
C1585       C  0.64151558  0.60772982  0.86695750    -0.04600
C1586       C  0.65747044  0.58511216  0.86202027     0.02400
C1587       C  0.71218676  0.64258170  0.83272886     0.09200
C1588       C  0.68697399  0.69267758  0.84396236     0.35100
C1589       C  0.65305775  0.55098077  0.86860971     0.38600
C1590       C  0.69412625  0.63768729  0.82079692    -0.05000
C1591       C  0.71634661  0.64598243  0.80958480     0.02200
C1592       C  0.75656629  0.65865756  0.81025207    -0.04600
C1593       C  0.77463709  0.66383598  0.82216677    -0.00800
C1594       C  0.75261163  0.65621350  0.83337221    -0.03400
C1595       C  0.65261444  0.62369719  0.82006127     0.35900
C1596       C  0.81602839  0.67734020  0.82292613     0.39500
C1597       C  0.69770281  0.64069731  0.79733635     0.38600
C1598       C  0.77157219  0.66239969  0.84559853     0.35500
C1599       C  0.69340805  0.57156154  0.84541821     0.36200
C1600       C  0.63830727  0.66932618  0.86565334     0.39500
N1601       N  0.68280843  0.63632839  0.78756475    -0.38600
N1602       N  0.61952874  0.61267979  0.81944972    -0.40200
N1603       N  0.84903010  0.68807998  0.82365181    -0.37900
N1604       N  0.78685027  0.66736529  0.85532361    -0.40300
N1605       N  0.69648246  0.72244284  0.83922981    -0.40100
N1606       N  0.62815439  0.69029490  0.86937953    -0.37700
N1607       N  0.65005517  0.52380487  0.87373073    -0.38800
N1608       N  0.70460656  0.55203664  0.84116363    -0.40400
C1609       C  0.61161607  0.05630910  0.98620269    -0.05400
C1610       C  0.58100657  0.03424196  0.99470666     0.08800
C1611       C  0.54668848  0.00155869  0.99018727    -0.02800
C1612       C  0.54122924  0.99344235  0.97706420    -0.01000
C1613       C  0.56995328  0.01870152  0.96823742    -0.04600
C1614       C  0.60665347  0.04789204  0.97310551     0.02400
C1615       C  0.58383979  0.04611219  0.00834805     0.09200
C1616       C  0.51628571  0.97690564  0.99908418     0.35100
C1617       C  0.63985357  0.06913840  0.96475409     0.38600
C1618       C  0.56175078  0.06279270  0.01271935    -0.05000
C1619       C  0.55928556  0.06863303  0.02580394     0.02200
C1620       C  0.58074984  0.05987669  0.03461109    -0.04600
C1621       C  0.60532906  0.04604600  0.03007148    -0.00800
C1622       C  0.60623890  0.03846926  0.01703107    -0.03400
C1623       C  0.54015107  0.07239244  0.00371413     0.35900
C1624       C  0.62879078  0.03831039  0.03886727     0.39500
C1625       C  0.53133124  0.07955471  0.03015820     0.38600
C1626       C  0.62872140  0.02100757  0.01262032     0.35500
C1627       C  0.64774416  0.08882193  0.99087514     0.36200
C1628       C  0.50599559  0.95883278  0.97293894     0.39500
N1629       N  0.50825981  0.08748169  0.03342324    -0.38600
N1630       N  0.52298645  0.07995502  0.99648411    -0.40200
N1631       N  0.64741606  0.03195085  0.04585870    -0.37900
N1632       N  0.64655655  0.00695266  0.00910824    -0.40300
N1633       N  0.49193746  0.95732196  0.00614631    -0.40100
N1634       N  0.47793743  0.93065438  0.96994241    -0.37700
N1635       N  0.66632570  0.08594631  0.95808542    -0.38800
N1636       N  0.67657198  0.11477477  0.99458564    -0.40400
C1637       C  0.34328176  0.99153371  0.18014205    -0.05400
C1638       C  0.36385537  0.97282419  0.17630692     0.08800
C1639       C  0.36494782  0.94492161  0.18426123    -0.02800
C1640       C  0.34395405  0.93425193  0.19575309    -0.01000
C1641       C  0.32098193  0.95113057  0.19937917    -0.04600
C1642       C  0.32218084  0.98110726  0.19163315     0.02400
C1643       C  0.38598610  0.98395590  0.16410307     0.09200
C1644       C  0.38823156  0.92748210  0.18065108     0.35100
C1645       C  0.30209191  0.00177804  0.19527787     0.38600
C1646       C  0.42672128  0.00924177  0.16420823    -0.05000
C1647       C  0.44784771  0.01929297  0.15277322     0.02200
C1648       C  0.42809139  0.00584674  0.14113246    -0.04600
C1649       C  0.38711142  0.98212196  0.14095446    -0.00800
C1650       C  0.36624875  0.96990089  0.15245613    -0.03400
C1651       C  0.44678887  0.02490091  0.17612118     0.35900
C1652       C  0.36643339  0.97142672  0.12895767     0.39500
C1653       C  0.49002836  0.04298017  0.15298056     0.38600
C1654       C  0.32472596  0.94217333  0.15236629     0.35500
C1655       C  0.34434176  0.02203869  0.17224517     0.36200
C1656       C  0.34764170  0.90688487  0.20395276     0.39500
N1657       N  0.52369676  0.06169334  0.15312773    -0.38600
N1658       N  0.46256161  0.03736959  0.18566303    -0.40200
N1659       N  0.34994945  0.96339336  0.11938525    -0.37900
N1660       N  0.29168766  0.91968637  0.15235564    -0.40300
N1661       N  0.40706650  0.91384316  0.17783820    -0.40100
N1662       N  0.35107173  0.88502793  0.21031650    -0.37700
N1663       N  0.28686895  0.01917236  0.19804960    -0.38800
N1664       N  0.34535168  0.04636510  0.16592098    -0.40400
C1665       C  0.46524559  0.46245286  0.98867537    -0.05400
C1666       C  0.46641604  0.49231421  0.99622516     0.08800
C1667       C  0.46016659  0.52088259  0.99054484    -0.02800
C1668       C  0.45703632  0.52210113  0.97722818    -0.01000
C1669       C  0.46179623  0.49554173  0.96937412    -0.04600
C1670       C  0.46178679  0.46329333  0.97538110     0.02400
C1671       C  0.47433887  0.49361963  0.01016675     0.09200
C1672       C  0.45720623  0.54928116  0.99844766     0.35100
C1673       C  0.45649097  0.42977782  0.96816975     0.38600
C1674       C  0.51199763  0.51928209  0.01489446    -0.05000
C1675       C  0.51981560  0.52061824  0.02800061     0.02200
C1676       C  0.49008294  0.49571831  0.03653290    -0.04600
C1677       C  0.45245244  0.46948918  0.03167469    -0.00800
C1678       C  0.44456851  0.46891169  0.01859567    -0.03400
C1679       C  0.54256990  0.54509173  0.00624899     0.35900
C1680       C  0.42169675  0.44245816  0.04002714     0.39500
C1681       C  0.55797971  0.54940890  0.03267472     0.38600
C1682       C  0.40551044  0.44343034  0.01379942     0.35500
C1683       C  0.46825910  0.43102084  0.99460883     0.36200
C1684       C  0.44685120  0.54950273  0.97186178     0.39500
N1685       N  0.58853833  0.57271321  0.03621790    -0.38600
N1686       N  0.56689339  0.56583138  0.99936794    -0.40200
N1687       N  0.39671769  0.42045985  0.04647357    -0.37900
N1688       N  0.37433332  0.42323183  0.00997335    -0.40300
N1689       N  0.45476702  0.57197636  0.00470369    -0.40100
N1690       N  0.43795908  0.57102291  0.96776750    -0.37700
N1691       N  0.45159803  0.40248982  0.96261051    -0.38800
N1692       N  0.47048649  0.40583215  0.99930656    -0.40400
C1693       C  0.52004302  0.75699006  0.08560153    -0.05400
C1694       C  0.52604423  0.77678599  0.09720738     0.08800
C1695       C  0.53345190  0.76173064  0.10827372    -0.02800
C1696       C  0.53556629  0.72723486  0.10770587    -0.01000
C1697       C  0.53147085  0.70819652  0.09592219    -0.04600
C1698       C  0.52282090  0.72293475  0.08492373     0.02400
C1699       C  0.52530367  0.81409652  0.09760443     0.09200
C1700       C  0.53919795  0.78207138  0.12022043     0.35100
C1701       C  0.51473388  0.70217972  0.07297798     0.38600
C1702       C  0.48989742  0.81368672  0.09956592    -0.05000
C1703       C  0.48874940  0.84865489  0.09891076     0.02200
C1704       C  0.52308267  0.88428710  0.09615497    -0.04600
C1705       C  0.55869919  0.88459212  0.09442882    -0.00800
C1706       C  0.55976043  0.84962777  0.09522708    -0.03400
C1707       C  0.45442721  0.77703350  0.10194892     0.35900
C1708       C  0.59449979  0.92088478  0.09197823     0.39500
C1709       C  0.45174071  0.84737994  0.10050649     0.38600
C1710       C  0.59626890  0.84997387  0.09345580     0.35500
C1711       C  0.51074568  0.77176197  0.07434658     0.36200
C1712       C  0.54189667  0.71153524  0.11930058     0.39500
N1713       N  0.42199741  0.84585279  0.10180854    -0.38600
N1714       N  0.42605002  0.74785466  0.10382439    -0.40200
N1715       N  0.62317194  0.94968933  0.09000235    -0.37900
N1716       N  0.62531040  0.85008099  0.09207428    -0.40300
N1717       N  0.54386083  0.79846770  0.12971928    -0.40100
N1718       N  0.54624415  0.69867133  0.12858764    -0.37700
N1719       N  0.50790898  0.68583456  0.06339563    -0.38800
N1720       N  0.50320422  0.78364806  0.06542788    -0.40400
C1721       C  0.52401996  0.32635952  0.09876858    -0.05400
C1722       C  0.53046200  0.31339111  0.08707147     0.08800
C1723       C  0.53512323  0.33531840  0.07603919    -0.02800
C1724       C  0.53248496  0.36959924  0.07662786    -0.01000
C1725       C  0.52778750  0.38397283  0.08847868    -0.04600
C1726       C  0.52378334  0.36179035  0.09958584     0.02400
C1727       C  0.53227642  0.27644763  0.08650978     0.09200
C1728       C  0.54281985  0.32255579  0.06403793     0.35100
C1729       C  0.51998740  0.37494253  0.11206868     0.38600
C1730       C  0.50062126  0.24189423  0.08160510    -0.05000
C1731       C  0.50141567  0.20665761  0.08186726     0.02200
C1732       C  0.53320987  0.20545031  0.08743477    -0.04600
C1733       C  0.56505773  0.24004398  0.09220036    -0.00800
C1734       C  0.56487365  0.27554674  0.09154047    -0.03400
C1735       C  0.46687604  0.24250092  0.07655758     0.35900
C1736       C  0.59774792  0.23898400  0.09795590     0.39500
C1737       C  0.46954645  0.17156404  0.07638495     0.38600
C1738       C  0.59809365  0.31131006  0.09609773     0.35500
C1739       C  0.51735977  0.30285757  0.11005326     0.36200
C1740       C  0.53263845  0.38857538  0.06485964     0.39500
N1741       N  0.44431474  0.14359643  0.07192504    -0.38600
N1742       N  0.44003951  0.24317908  0.07254002    -0.40200
N1743       N  0.62385947  0.23817639  0.10255001    -0.37900
N1744       N  0.62439762  0.34008605  0.09968105    -0.40300
N1745       N  0.54904691  0.31240080  0.05447410    -0.40100
N1746       N  0.53232358  0.40324412  0.05541680    -0.37700
N1747       N  0.51670196  0.38433506  0.12217017    -0.38800
N1748       N  0.51195415  0.28411127  0.11903891    -0.40400
C1749       C  0.94321718  0.92770725  0.24951054    -0.05400
C1750       C  0.94622501  0.89360681  0.24955576     0.08800
C1751       C  0.91193811  0.85682071  0.24848574    -0.02800
C1752       C  0.87502221  0.85406175  0.24791386    -0.01000
C1753       C  0.87209911  0.88814082  0.24770775    -0.04600
C1754       C  0.90645267  0.92495074  0.24805162     0.02400
C1755       C  0.98538965  0.89609019  0.25013677     0.09200
C1756       C  0.91471051  0.82170756  0.24790425     0.35100
C1757       C  0.90414407  0.95978685  0.24574877     0.38600
C1758       C  0.99643661  0.88289173  0.26096077    -0.05000
C1759       C  0.03179766  0.88222304  0.26108677     0.02200
C1760       C  0.05593681  0.89347909  0.25021699    -0.04600
C1761       C  0.04496830  0.90705186  0.23942411    -0.00800
C1762       C  0.01030838  0.90899485  0.23948233    -0.03400
C1763       C  0.97062791  0.86848721  0.27183354     0.35900
C1764       C  0.06911947  0.91894577  0.22814242     0.39500
C1765       C  0.04223097  0.86799712  0.27222559     0.38600
C1766       C  0.99985695  0.92357868  0.22842664     0.35500
C1767       C  0.97790923  0.96564101  0.25095368     0.36200
C1768       C  0.83998230  0.81604919  0.24779091     0.39500
N1769       N  0.05059157  0.85672818  0.28112043    -0.38600
N1770       N  0.94986572  0.85629960  0.28045022    -0.40200
N1771       N  0.08782389  0.92812569  0.21901903    -0.37900
N1772       N  0.99173529  0.93563341  0.21967610    -0.40300
N1773       N  0.91712506  0.79380695  0.24748067    -0.40100
N1774       N  0.81203240  0.78571193  0.24776817    -0.37700
N1775       N  0.90210918  0.98724075  0.24343301    -0.38800
N1776       N  0.00551234  0.99595655  0.25213730    -0.40400
C1777       C  0.48530274  0.86003437  0.25353110    -0.05400
C1778       C  0.47828750  0.87601571  0.24260090     0.08800
C1779       C  0.50510101  0.88874528  0.23249015    -0.02800
C1780       C  0.53971210  0.88705271  0.23351689    -0.01000
C1781       C  0.54677143  0.87076437  0.24442523    -0.04600
C1782       C  0.51923476  0.85706417  0.25441228     0.02400
C1783       C  0.44268360  0.87983672  0.24188982     0.09200
C1784       C  0.49685705  0.90340851  0.22101183     0.35100
C1785       C  0.52519892  0.83928785  0.26554308     0.38600
C1786       C  0.44496483  0.91559341  0.24485663    -0.05000
C1787       C  0.41082519  0.91838253  0.24525703     0.02200
C1788       C  0.37399346  0.88533246  0.24256267    -0.04600
C1789       C  0.37235725  0.85001138  0.23889915    -0.00800
C1790       C  0.40650401  0.84728281  0.23873159    -0.03400
C1791       C  0.48262248  0.94952010  0.24756902     0.35900
C1792       C  0.33568576  0.81585422  0.23550224     0.39500
C1793       C  0.41422901  0.95579934  0.24804472     0.38600
C1794       C  0.40446062  0.81065277  0.23553044     0.35500
C1795       C  0.45733575  0.84655231  0.26385597     0.36200
C1796       C  0.56911725  0.90439675  0.22368880     0.39500
N1797       N  0.41788264  0.98606961  0.25023233    -0.38600
N1798       N  0.51271039  0.97658350  0.24964945    -0.40200
N1799       N  0.30696957  0.78830151  0.23257665    -0.37900
N1800       N  0.40292318  0.78145452  0.23305470    -0.40300
N1801       N  0.49004336  0.91481149  0.21183071    -0.40100
N1802       N  0.59274202  0.91884365  0.21592319    -0.37700
N1803       N  0.52914412  0.82489832  0.27452303    -0.38800
N1804       N  0.43479303  0.83578583  0.27201496    -0.40400
C1805       C  0.68375797  0.75419342  0.17685534    -0.05400
C1806       C  0.64448872  0.73247193  0.17304361     0.08800
C1807       C  0.61581389  0.73531839  0.18007876    -0.02800
C1808       C  0.62577081  0.75773575  0.19132468    -0.01000
C1809       C  0.66552487  0.78021920  0.19529537    -0.04600
C1810       C  0.69446688  0.77885293  0.18760228     0.02400
C1811       C  0.63295288  0.70649169  0.16156591     0.09200
C1812       C  0.57578210  0.71525887  0.17556901     0.35100
C1813       C  0.73568456  0.80335351  0.19030974     0.38600
C1814       C  0.61335253  0.66553305  0.16300523    -0.05000
C1815       C  0.59940535  0.64100781  0.15226535     0.02200
C1816       C  0.60586782  0.65722505  0.14000419    -0.04600
C1817       C  0.62716726  0.69809493  0.13850845    -0.00800
C1818       C  0.64002666  0.72266391  0.14926200    -0.03400
C1819       C  0.60754195  0.64868441  0.17556444     0.35900
C1820       C  0.63581903  0.71485170  0.12589720     0.39500
C1821       C  0.57828872  0.59898893  0.15378703     0.38600
C1822       C  0.65975420  0.76462020  0.14770678     0.35500
C1823       C  0.71334303  0.75103565  0.16967842     0.36200
C1824       C  0.59419460  0.75595599  0.19883102     0.39500
N1825       N  0.56145586  0.56544071  0.15491387    -0.38600
N1826       N  0.60302665  0.63529767  0.18559175    -0.40200
N1827       N  0.64294050  0.72830572  0.11584645    -0.37900
N1828       N  0.67549691  0.79812882  0.14653204    -0.40300
N1829       N  0.54405176  0.69942478  0.17183378    -0.40100
N1830       N  0.56850477  0.75388252  0.20469020    -0.37700
N1831       N  0.76877314  0.82264268  0.19219743    -0.38800
N1832       N  0.73702566  0.74858926  0.16399289    -0.40400
C1833       C  0.18893913  0.08539015  0.24297795    -0.05400
C1834       C  0.20379996  0.11014609  0.25363084     0.08800
C1835       C  0.21922216  0.09927043  0.26388286    -0.02800
C1836       C  0.22056215  0.06432194  0.26337908    -0.01000
C1837       C  0.20625801  0.03982122  0.25262043    -0.04600
C1838       C  0.19023526  0.05047068  0.24246279     0.02400
C1839       C  0.20488608  0.14857024  0.25377990     0.09200
C1840       C  0.23407595  0.12434064  0.27492880     0.35100
C1841       C  0.17463277  0.02524852  0.23148181     0.38600
C1842       C  0.17068260  0.15033543  0.25607367    -0.05000
C1843       C  0.17160722  0.18648069  0.25561009     0.02200
C1844       C  0.20697203  0.22128262  0.25294933    -0.04600
C1845       C  0.24151935  0.21949695  0.25133311    -0.00800
C1846       C  0.24030518  0.18330133  0.25147610    -0.03400
C1847       C  0.13439900  0.11470332  0.25868703     0.35900
C1848       C  0.27882158  0.25504247  0.25009605     0.39500
C1849       C  0.13584406  0.18746209  0.25753169     0.38600
C1850       C  0.27548553  0.18164437  0.24898588     0.35500
C1851       C  0.17247143  0.09597626  0.23248244     0.36200
C1852       C  0.23840854  0.05480416  0.27371744     0.39500
N1853       N  0.10718631  0.18795173  0.25913959    -0.38600
N1854       N  0.10554528  0.08612054  0.26070782    -0.40200
N1855       N  0.30892972  0.28310534  0.24932702    -0.37900
N1856       N  0.30345920  0.18020022  0.24696956    -0.40300
N1857       N  0.24601777  0.14433150  0.28373906    -0.40100
N1858       N  0.25311103  0.04819511  0.28207188    -0.37700
N1859       N  0.16231932  0.00526039  0.22269013    -0.38800
N1860       N  0.15906324  0.10417393  0.22412594    -0.40400
C1861       C  0.22221515  0.67406973  0.25030358    -0.05400
C1862       C  0.21575215  0.65599695  0.23830635     0.08800
C1863       C  0.21016158  0.67434227  0.22768942    -0.02800
C1864       C  0.20988119  0.70972682  0.22912989    -0.01000
C1865       C  0.21681888  0.72814689  0.24114936    -0.04600
C1866       C  0.22428199  0.71052092  0.25162806     0.02400
C1867       C  0.21459529  0.61751876  0.23703349     0.09200
C1868       C  0.20419761  0.65656848  0.21525482     0.35100
C1869       C  0.23638156  0.73056639  0.26370371     0.38600
C1870       C  0.17890607  0.58282723  0.23477647    -0.05000
C1871       C  0.17731498  0.54635707  0.23473656     0.02200
C1872       C  0.21093185  0.54397987  0.23759774    -0.04600
C1873       C  0.24669351  0.57868163  0.23970830    -0.00800
C1874       C  0.24874930  0.61529636  0.23902005    -0.03400
C1875       C  0.14355230  0.58459173  0.23288782     0.35900
C1876       C  0.28080297  0.57664987  0.24351992     0.39500
C1877       C  0.14115183  0.51126032  0.23157589     0.38600
C1878       C  0.28594498  0.65080647  0.24064561     0.35500
C1879       C  0.22589226  0.65467127  0.26143698     0.36200
C1880       C  0.20115032  0.72622261  0.21821448     0.39500
N1881       N  0.11240648  0.48333425  0.22890240    -0.38600
N1882       N  0.11549663  0.58628560  0.23138131    -0.40200
N1883       N  0.30786530  0.57509099  0.24679844    -0.37900
N1884       N  0.31555505  0.67920004  0.24194077    -0.40300
N1885       N  0.19917090  0.64248095  0.20531269    -0.40100
N1886       N  0.19391541  0.73871891  0.20938651    -0.37700
N1887       N  0.24686013  0.74593485  0.27341062    -0.38800
N1888       N  0.22861151  0.63926908  0.27036471    -0.40400
C1889       C  0.99765126  0.15919573  0.24349558    -0.05400
C1890       C  0.97380768  0.15275627  0.25420446     0.08800
C1891       C  0.98632225  0.18166631  0.26370568    -0.02800
C1892       C  0.02251538  0.21668094  0.26256134    -0.01000
C1893       C  0.04609296  0.22355013  0.25170367    -0.04600
C1894       C  0.03343892  0.19445269  0.24219343     0.02400
C1895       C  0.93465340  0.11611439  0.25514108     0.09200
C1896       C  0.96116995  0.17573231  0.27446069     0.35100
C1897       C  0.05757283  0.20036565  0.23113329     0.38600
C1898       C  0.93031776  0.08349197  0.26184427    -0.05000
C1899       C  0.89404823  0.04814502  0.26195703     0.02200
C1900       C  0.86138825  0.04457246  0.25505055    -0.04600
C1901       C  0.86558155  0.07894227  0.24920486    -0.00800
C1902       C  0.90194831  0.11405985  0.24916305    -0.03400
C1903       C  0.96364401  0.08626899  0.26852913     0.35900
C1904       C  0.83251147  0.07940454  0.24353312     0.39500
C1905       C  0.89152013  0.01574504  0.26909798     0.38600
C1906       C  0.90599751  0.14851796  0.24290561     0.35500
C1907       C  0.98498143  0.12951535  0.23372952     0.36200
C1908       C  0.03467691  0.24625173  0.27234067     0.39500
N1909       N  0.89056046  0.99043324  0.27484381    -0.38600
N1910       N  0.99016124  0.08848229  0.27389155    -0.40200
N1911       N  0.80670316  0.08086801  0.23899130    -0.37900
N1912       N  0.90955304  0.17616515  0.23796110    -0.40300
N1913       N  0.94074586  0.17083574  0.28296039    -0.40100
N1914       N  0.04432694  0.26981257  0.28015787    -0.37700
N1915       N  0.07671937  0.20497415  0.22229388    -0.38800
N1916       N  0.97470235  0.10575974  0.22595808    -0.40400
C1917       C  0.48369481  0.66383835  0.24504151    -0.05400
C1918       C  0.48153013  0.63720466  0.23570134     0.08800
C1919       C  0.51500210  0.64642626  0.22840750    -0.02800
C1920       C  0.55036094  0.68169799  0.23053597    -0.01000
C1921       C  0.55221916  0.70868969  0.23968055    -0.04600
C1922       C  0.51879149  0.69941278  0.24698583     0.02400
C1923       C  0.44423473  0.59891700  0.23396907     0.09200
C1924       C  0.51295555  0.61956002  0.21869175     0.35100
C1925       C  0.52062721  0.72637670  0.25662398     0.38600
C1926       C  0.41194725  0.59745762  0.22778370    -0.05000
C1927       C  0.37530694  0.56262992  0.22769251     0.02200
C1928       C  0.37043339  0.52873225  0.23398496    -0.04600
C1929       C  0.40417215  0.52933372  0.23885842    -0.00800
C1930       C  0.44055873  0.56431386  0.23903839    -0.03400
C1931       C  0.41641676  0.63219775  0.22164454     0.35900
C1932       C  0.40198321  0.49373455  0.24339898     0.39500
C1933       C  0.34286941  0.56251884  0.22127046     0.38600
C1934       C  0.47419448  0.56493548  0.24472972     0.35500
C1935       C  0.44973316  0.65437792  0.25274256     0.36200
C1936       C  0.58521688  0.68952317  0.22364237     0.39500
N1937       N  0.31731276  0.56276348  0.21603708    -0.38600
N1938       N  0.41996035  0.65987053  0.21672430    -0.40200
N1939       N  0.40041062  0.46535512  0.24694389    -0.37900
N1940       N  0.50110163  0.56545329  0.24921722    -0.40300
N1941       N  0.51123074  0.59804694  0.21094627    -0.40100
N1942       N  0.61304547  0.69533481  0.21823163    -0.37700
N1943       N  0.52205711  0.74774230  0.26436951    -0.38800
N1944       N  0.42252647  0.64670458  0.25884028    -0.40400
C1945       C  0.02987418  0.54543906  0.98806680    -0.05400
C1946       C  0.02086968  0.57203391  0.99395009     0.08800
C1947       C  0.01622034  0.59882850  0.98640493    -0.02800
C1948       C  0.02075774  0.59917608  0.97310463    -0.01000
C1949       C  0.03119451  0.57346685  0.96724417    -0.04600
C1950       C  0.03575547  0.54661038  0.97485399     0.02400
C1951       C  0.01949347  0.57348660  0.00817776     0.09200
C1952       C  0.00750009  0.62658658  0.99236445     0.35100
C1953       C  0.04555919  0.51926585  0.96916023     0.38600
C1954       C  0.05414331  0.58628734  0.01515465    -0.05000
C1955       C  0.05297984  0.58284415  0.02846476     0.02200
C1956       C  0.01748391  0.56982157  0.03516473    -0.04600
C1957       C  0.98298502  0.55904046  0.02813808    -0.00800
C1958       C  0.98387435  0.55992747  0.01470970    -0.03400
C1959       C  0.09112413  0.60207997  0.00851059     0.35900
C1960       C  0.94652295  0.54733063  0.03465381     0.39500
C1961       C  0.08795819  0.58937170  0.03498991     0.38600
C1962       C  0.94802957  0.54608573  0.00757631     0.35500
C1963       C  0.03325436  0.51677603  0.99568338     0.36200
C1964       C  0.01559057  0.62676509  0.96550604     0.39500
N1965       N  0.11606824  0.59393737  0.03989020    -0.38600
N1966       N  0.12039358  0.61450707  0.00311488    -0.40200
N1967       N  0.91737432  0.53812402  0.03980410    -0.37900
N1968       N  0.91954418  0.53509609  0.00182352    -0.40300
N1969       N  0.00043262  0.64866630  0.99711867    -0.40100
N1970       N  0.01127686  0.64860491  0.95942394    -0.37700
N1971       N  0.05361510  0.49739689  0.96481180    -0.38800
N1972       N  0.03612911  0.49405455  0.00176150    -0.40400
C1973       C  0.33771742  0.57863858  0.10260239    -0.05400
C1974       C  0.30312905  0.54253012  0.10112477     0.08800
C1975       C  0.30504702  0.50815836  0.09979406    -0.02800
C1976       C  0.34150391  0.50990561  0.09964057    -0.01000
C1977       C  0.37651470  0.54628759  0.10062859    -0.04600
C1978       C  0.37432758  0.58064485  0.10230580     0.02400
C1979       C  0.26479865  0.54113739  0.10002690     0.09200
C1980       C  0.26940499  0.47110554  0.09812766     0.35100
C1981       C  0.40953254  0.61848941  0.10281115     0.38600
C1982       C  0.25186454  0.54580846  0.08807342    -0.05000
C1983       C  0.21612550  0.54524909  0.08691738     0.02200
C1984       C  0.19245786  0.53921502  0.09771243    -0.04600
C1985       C  0.20648140  0.53620543  0.10979680    -0.00800
C1986       C  0.24228643  0.53671822  0.11089444    -0.03400
C1987       C  0.27594058  0.55206175  0.07696431     0.35900
C1988       C  0.18480973  0.53348568  0.12119773     0.39500
C1989       C  0.20560106  0.55419910  0.07473732     0.38600
C1990       C  0.25628491  0.53303876  0.12322831     0.35500
C1991       C  0.33545691  0.61394229  0.10384038     0.36200
C1992       C  0.34275151  0.47406667  0.09837078     0.39500
N1993       N  0.19822659  0.56217360  0.06498367    -0.38600
N1994       N  0.29522666  0.55717115  0.06812543    -0.40200
N1995       N  0.16821150  0.53219182  0.13037804    -0.37900
N1996       N  0.26751446  0.53012801  0.13305811    -0.40300
N1997       N  0.24096607  0.44160735  0.09672687    -0.40100
N1998       N  0.34343211  0.44533666  0.09731473    -0.37700
N1999       N  0.43724894  0.64898024  0.10314489    -0.38800
N2000       N  0.33328878  0.64190546  0.10475786    -0.40400
C2001       C  0.73481567  0.52193614  0.09535139    -0.05400
C2002       C  0.75859936  0.53584552  0.08446100     0.08800
C2003       C  0.74634694  0.54977209  0.07414097    -0.02800
C2004       C  0.71160957  0.55162350  0.07495388    -0.01000
C2005       C  0.68855424  0.53916670  0.08609614    -0.04600
C2006       C  0.69964113  0.52280211  0.09605912     0.02400
C2007       C  0.79741134  0.53743954  0.08417865     0.09200
C2008       C  0.76994829  0.56271972  0.06274585     0.35100
C2009       C  0.67393384  0.50506913  0.10682654     0.38600
C2010       C  0.79952270  0.50316197  0.08255567    -0.05000
C2011       C  0.83585676  0.50447431  0.08329107     0.02200
C2012       C  0.87066744  0.54026054  0.08552997    -0.04600
C2013       C  0.86843286  0.57467741  0.08690033    -0.00800
C2014       C  0.83207104  0.57322535  0.08617899    -0.03400
C2015       C  0.76407803  0.46644459  0.08022843     0.35900
C2016       C  0.90350459  0.61195335  0.08885038     0.39500
C2017       C  0.83703388  0.46854395  0.08238465     0.38600
C2018       C  0.83014902  0.60867311  0.08755108     0.35500
C2019       C  0.74704377  0.50742190  0.10597798     0.36200
C2020       C  0.70026545  0.56722187  0.06440681     0.39500
N2021       N  0.83802440  0.43990349  0.08170655    -0.38600
N2022       N  0.73566706  0.43725583  0.07838157    -0.40200
N2023       N  0.93105348  0.64208445  0.09038281    -0.37900
N2024       N  0.82834171  0.63682159  0.08852161    -0.40300
N2025       N  0.78896663  0.57309228  0.05369281    -0.40100
N2026       N  0.69132253  0.57958433  0.05593657    -0.37700
N2027       N  0.65323086  0.49044377  0.11533561    -0.38800
N2028       N  0.75697568  0.49594471  0.11443776    -0.40400
C2029       C  0.30918770  0.82353871  0.08554162    -0.05400
C2030       C  0.29259019  0.80780089  0.09742852     0.08800
C2031       C  0.31103284  0.82847423  0.10856170    -0.02800
C2032       C  0.34608093  0.86468882  0.10785187    -0.01000
C2033       C  0.36239639  0.88130865  0.09589589    -0.04600
C2034       C  0.34399208  0.85986433  0.08475491     0.02400
C2035       C  0.25585577  0.76900750  0.09816863     0.09200
C2036       C  0.29365437  0.81236283  0.12077537     0.35100
C2037       C  0.36197758  0.87359404  0.07244920     0.38600
C2038       C  0.25765752  0.73446408  0.09939339    -0.05000
C2039       C  0.22309701  0.69775173  0.09918664     0.02200
C2040       C  0.18640272  0.69539508  0.09783731    -0.04600
C2041       C  0.18468520  0.73018362  0.09724429    -0.00800
C2042       C  0.21925788  0.76676236  0.09733548    -0.03400
C2043       C  0.29520236  0.73676993  0.10077908     0.35900
C2044       C  0.14723618  0.72848393  0.09688249     0.39500
C2045       C  0.22562034  0.66252214  0.09992186     0.38600
C2046       C  0.21718753  0.80221791  0.09656059     0.35500
C2047       C  0.29037251  0.80209753  0.07407220     0.36200
C2048       C  0.36546415  0.88411704  0.11951158     0.39500
N2049       N  0.22794795  0.63460176  0.10053929    -0.38600
N2050       N  0.32510101  0.73854448  0.10195789    -0.40200
N2051       N  0.11742791  0.72725616  0.09665636    -0.37900
N2052       N  0.21531818  0.83039409  0.09595923    -0.40300
N2053       N  0.27962154  0.79945717  0.13049665    -0.40100
N2054       N  0.38110665  0.89891400  0.12887334    -0.37700
N2055       N  0.37607223  0.88375265  0.06255964    -0.38800
N2056       N  0.27532813  0.78506968  0.06492202    -0.40400
C2057       C  0.72859492  0.26661254  0.07853763    -0.05400
C2058       C  0.76270562  0.26804710  0.08310116     0.08800
C2059       C  0.76154286  0.23336357  0.08679902    -0.02800
C2060       C  0.72607311  0.19759162  0.08652160    -0.01000
C2061       C  0.69084984  0.19625377  0.08296472    -0.04600
C2062       C  0.69277701  0.23100873  0.07846873     0.02400
C2063       C  0.79991685  0.30624015  0.08428894     0.09200
C2064       C  0.79703165  0.23464060  0.09103017     0.35100
C2065       C  0.65810745  0.23089952  0.07398737     0.38600
C2066       C  0.80768018  0.32854580  0.09544420    -0.05000
C2067       C  0.84355810  0.36348527  0.09694254     0.02200
C2068       C  0.87165552  0.37706744  0.08709807    -0.04600
C2069       C  0.86351913  0.35473995  0.07584677    -0.00800
C2070       C  0.82785199  0.31940184  0.07449794    -0.03400
C2071       C  0.77833926  0.31564480  0.10532984     0.35900
C2072       C  0.89242248  0.36719940  0.06584029     0.39500
C2073       C  0.85093220  0.38573193  0.10855555     0.38600
C2074       C  0.81970344  0.29625246  0.06306229     0.35500
C2075       C  0.73041480  0.30209566  0.07406037     0.36200
C2076       C  0.72665342  0.16212999  0.08940586     0.39500
N2077       N  0.85647159  0.40308440  0.11789142    -0.38600
N2078       N  0.75474707  0.30545913  0.11314810    -0.40200
N2079       N  0.91550993  0.37705387  0.05786558    -0.37900
N2080       N  0.81280376  0.27745817  0.05399698    -0.40300
N2081       N  0.82532284  0.23566795  0.09440927    -0.40100
N2082       N  0.72824581  0.13436540  0.09159747    -0.37700
N2083       N  0.63080393  0.23127704  0.07027828    -0.38800
N2084       N  0.73193970  0.33040188  0.07046125    -0.40400
C2085       C  0.10193625  0.44314707  0.15145028    -0.05400
C2086       C  0.09300862  0.45168934  0.16359181     0.08800
C2087       C  0.07132692  0.47104459  0.16463552    -0.02800
C2088       C  0.05994468  0.48305843  0.15363206    -0.01000
C2089       C  0.06960891  0.47520602  0.14152960    -0.04600
C2090       C  0.08947207  0.45409507  0.14046290     0.02400
C2091       C  0.10734853  0.44117545  0.17527060     0.09200
C2092       C  0.06125075  0.47901034  0.17706702     0.35100
C2093       C  0.09723829  0.44390536  0.12801198     0.38600
C2094       C  0.13913369  0.47027934  0.18214227    -0.05000
C2095       C  0.15366470  0.46043958  0.19288525     0.02200
C2096       C  0.13712169  0.42086185  0.19673885    -0.04600
C2097       C  0.10433987  0.39188535  0.18993090    -0.00800
C2098       C  0.08936663  0.40220002  0.17941371    -0.03400
C2099       C  0.15681989  0.51066290  0.17816037     0.35900
C2100       C  0.08586713  0.35106370  0.19343875     0.39500
C2101       C  0.18499902  0.49169670  0.20006276     0.38600
C2102       C  0.05486012  0.37259918  0.17293101     0.35500
C2103       C  0.12512917  0.42430513  0.15026133     0.36200
C2104       C  0.03813366  0.50335761  0.15474510     0.39500
N2105       N  0.21003619  0.51692917  0.20566438    -0.38600
N2106       N  0.17070491  0.54287679  0.17503472    -0.40200
N2107       N  0.07060862  0.31842642  0.19616243    -0.37900
N2108       N  0.02718695  0.34881018  0.16788438    -0.40300
N2109       N  0.05351051  0.48543221  0.18702290    -0.40100
N2110       N  0.02061781  0.51944914  0.15564364    -0.37700
N2111       N  0.10321326  0.43585662  0.11803914    -0.38800
N2112       N  0.14386152  0.40951417  0.14929112    -0.40400
C2113       C  0.88232608  0.72010262  0.65463461    -0.05400
C2114       C  0.87705011  0.68763819  0.66166930     0.08800
C2115       C  0.86722998  0.65247183  0.65535819    -0.02800
C2116       C  0.86329300  0.64998498  0.64200417    -0.01000
C2117       C  0.86909823  0.68277090  0.63488978    -0.04600
C2118       C  0.87790050  0.71762759  0.64137198     0.02400
C2119       C  0.87927832  0.69035812  0.67583678     0.09200
C2120       C  0.86049115  0.61871169  0.66267253     0.35100
C2121       C  0.88031870  0.75058569  0.63458880     0.38600
C2122       C  0.84889269  0.69089302  0.68264337    -0.05000
C2123       C  0.85266423  0.69855873  0.69575705     0.02200
C2124       C  0.88577684  0.70318184  0.70237404    -0.04600
C2125       C  0.91589825  0.70189394  0.69559615    -0.00800
C2126       C  0.91304853  0.69639660  0.68231764    -0.03400
C2127       C  0.81377057  0.68388202  0.67605627     0.35900
C2128       C  0.95049258  0.70779777  0.70223435     0.39500
C2129       C  0.82220981  0.70162952  0.70235490     0.38600
C2130       C  0.94530696  0.69815856  0.67526328     0.35500
C2131       C  0.89148941  0.75595627  0.66119634     0.36200
C2132       C  0.85359704  0.61377555  0.63564289     0.39500
N2133       N  0.79786649  0.70461323  0.70737364    -0.38600
N2134       N  0.78584248  0.67826959  0.67076289    -0.40200
N2135       N  0.97805520  0.71260381  0.70758525    -0.37900
N2136       N  0.97119348  0.69983961  0.66963639    -0.40300
N2137       N  0.85506890  0.59183000  0.66855836    -0.40100
N2138       N  0.84564433  0.58474855  0.63061494    -0.37700
N2139       N  0.88201122  0.77718190  0.62946251    -0.38800
N2140       N  0.89845215  0.78413260  0.66660946    -0.40400
C2141       C  0.71264916  0.95006116  0.35222041    -0.05400
C2142       C  0.69549925  0.91816312  0.34382618     0.08800
C2143       C  0.66704280  0.88136085  0.34842965    -0.02800
C2144       C  0.65880876  0.87541661  0.36153821    -0.01000
C2145       C  0.67642187  0.90725612  0.37014495    -0.04600
C2146       C  0.70197163  0.94512180  0.36513900     0.02400
C2147       C  0.70778810  0.92300336  0.33015269     0.09200
C2148       C  0.64641348  0.84930401  0.33960373     0.35100
C2149       C  0.71793878  0.97952614  0.37316741     0.38600
C2150       C  0.72862091  0.90527132  0.32544975    -0.05000
C2151       C  0.73653273  0.90618206  0.31234478     0.02200
C2152       C  0.72514610  0.92635130  0.30385203    -0.04600
C2153       C  0.70770348  0.94727376  0.30885255    -0.00800
C2154       C  0.69793897  0.94453288  0.32181320    -0.03400
C2155       C  0.74092594  0.88497596  0.33407916     0.35900
C2156       C  0.69945101  0.97168051  0.30066959     0.39500
C2157       C  0.75389699  0.88392518  0.30766084     0.38600
C2158       C  0.67635284  0.96275535  0.32644002     0.35500
C2159       C  0.74214947  0.98800322  0.34758973     0.36200
C2160       C  0.63458727  0.83577194  0.36594612     0.39500
N2161       N  0.76750396  0.86565954  0.30417917    -0.38600
N2162       N  0.75069210  0.86866613  0.34091599    -0.40200
N2163       N  0.69283627  0.99136252  0.29427005    -0.37900
N2164       N  0.65919741  0.97745564  0.33002659    -0.40300
N2165       N  0.62977398  0.82382133  0.33256034    -0.40100
N2166       N  0.61564074  0.80348277  0.36891112    -0.37700
N2167       N  0.73103081  0.00721237  0.37944026    -0.38800
N2168       N  0.76557510  0.01820572  0.34384365    -0.40400
C2169       C  0.74851526  0.80688383  0.49596936    -0.05400
C2170       C  0.74675792  0.77057008  0.49478096     0.08800
C2171       C  0.73287543  0.74909652  0.48344179    -0.02800
C2172       C  0.72121713  0.76408399  0.47325723    -0.01000
C2173       C  0.72312032  0.80063250  0.47440237    -0.04600
C2174       C  0.73675654  0.82184926  0.48584573     0.02400
C2175       C  0.76072234  0.75573740  0.50543353     0.09200
C2176       C  0.73111195  0.71177510  0.48225888     0.35100
C2177       C  0.73798903  0.85882796  0.48736005     0.38600
C2178       C  0.73652889  0.73766869  0.51597790    -0.05000
C2179       C  0.75141821  0.72851701  0.52675770     0.02200
C2180       C  0.79002143  0.73488798  0.52676434    -0.04600
C2181       C  0.81364985  0.75155425  0.51590569    -0.00800
C2182       C  0.79910974  0.76220199  0.50535382    -0.03400
C2183       C  0.69618210  0.72850687  0.51572876     0.35900
C2184       C  0.85289231  0.75768415  0.51540435     0.39500
C2185       C  0.72790399  0.71587525  0.53818544     0.38600
C2186       C  0.82366953  0.77987228  0.49434432     0.35500
C2187       C  0.76275307  0.82905369  0.50762980     0.36200
C2188       C  0.70925645  0.74278582  0.46138687     0.39500
N2189       N  0.70903683  0.70669129  0.54727649    -0.38600
N2190       N  0.66385516  0.72070730  0.51554007    -0.40200
N2191       N  0.88432451  0.76296595  0.51470079    -0.37900
N2192       N  0.84317558  0.79378054  0.48553537    -0.40300
N2193       N  0.72986227  0.68205178  0.48139528    -0.40100
N2194       N  0.69996084  0.72585198  0.45190050    -0.37700
N2195       N  0.73896671  0.88829963  0.48866101    -0.38800
N2196       N  0.77402628  0.84678693  0.51692040    -0.40400
C2197       C  0.36548166  0.22233659  0.65733586    -0.05400
C2198       C  0.35221183  0.24663462  0.66235636     0.08800
C2199       C  0.34562996  0.27086326  0.65420756    -0.02800
C2200       C  0.35125155  0.27010134  0.64102279    -0.01000
C2201       C  0.36336940  0.24481736  0.63583827    -0.04600
C2202       C  0.37111527  0.22139572  0.64415132     0.02400
C2203       C  0.34713204  0.24797635  0.67637304     0.09200
C2204       C  0.33298535  0.29657202  0.65945066     0.35100
C2205       C  0.38333789  0.19502621  0.63919100     0.38600
C2206       C  0.37874395  0.27443590  0.68383410    -0.05000
C2207       C  0.37593697  0.27289756  0.69717092     0.02200
C2208       C  0.34152374  0.24340680  0.70326911    -0.04600
C2209       C  0.30814552  0.22065276  0.69557013    -0.00800
C2210       C  0.31126373  0.22249699  0.68220879    -0.03400
C2211       C  0.41474257  0.30276285  0.67770398     0.35900
C2212       C  0.27004018  0.19634640  0.70119270     0.39500
C2213       C  0.40887996  0.30233457  0.70430842     0.38600
C2214       C  0.27760811  0.19773102  0.67442594     0.35500
C2215       C  0.37284164  0.19790744  0.66581334     0.36200
C2216       C  0.34514971  0.29597527  0.63284750     0.39500
N2217       N  0.43538386  0.32639340  0.70976030    -0.38600
N2218       N  0.44341519  0.32529763  0.67281362    -0.40200
N2219       N  0.23929269  0.17728799  0.70549460    -0.37900
N2220       N  0.25060304  0.17796648  0.66828069    -0.40300
N2221       N  0.32291977  0.31706269  0.66366903    -0.40100
N2222       N  0.34024966  0.31667379  0.62636524    -0.37700
N2223       N  0.39321799  0.17405475  0.63526978    -0.38800
N2224       N  0.37857762  0.17852111  0.67265616    -0.40400
C2225       C  0.07865240  0.88215330  0.57896918    -0.05400
C2226       C  0.08416515  0.91588164  0.57264614     0.08800
C2227       C  0.05268703  0.91466233  0.56597096    -0.02800
C2228       C  0.01504939  0.88151280  0.56673377    -0.01000
C2229       C  0.00924290  0.84750490  0.57311815    -0.04600
C2230       C  0.04194953  0.84772535  0.57873722     0.02400
C2231       C  0.12215757  0.95350862  0.57382633     0.09200
C2232       C  0.05906807  0.94787063  0.55838800     0.35100
C2233       C  0.03862117  0.81241581  0.58403100     0.38600
C2234       C  0.15662598  0.95801400  0.56819559    -0.05000
C2235       C  0.19240741  0.99296542  0.56989487     0.02200
C2236       C  0.19351652  0.02429775  0.57660369    -0.04600
C2237       C  0.15918699  0.02014065  0.58207590    -0.00800
C2238       C  0.12377037  0.98466654  0.58089971    -0.03400
C2239       C  0.15514784  0.92703085  0.56046082     0.35900
C2240       C  0.16049497  0.05246724  0.58898815     0.39500
C2241       C  0.22813757  0.99706410  0.56463929     0.38600
C2242       C  0.08894281  0.98021308  0.58701529     0.35500
C2243       C  0.11061803  0.88301180  0.58597182     0.36200
C2244       C  0.98223448  0.88375927  0.56160690     0.39500
N2245       N  0.25686193  0.00082396  0.56047393    -0.38600
N2246       N  0.15398948  0.90231151  0.55428668    -0.40200
N2247       N  0.16177714  0.07840464  0.59446551    -0.37900
N2248       N  0.06108577  0.97668444  0.59182283    -0.40300
N2249       N  0.06424669  0.97426986  0.55227744    -0.40100
N2250       N  0.95619020  0.88598245  0.55762610    -0.37700
N2251       N  0.03670652  0.78450271  0.58818256    -0.38800
N2252       N  0.13605646  0.88357362  0.59154212    -0.40400
C2253       C  0.54089840  0.42866985  0.58118647    -0.05400
C2254       C  0.57586785  0.42756768  0.58230636     0.08800
C2255       C  0.57418037  0.39156737  0.58429307    -0.02800
C2256       C  0.53791172  0.35663807  0.58441537    -0.01000
C2257       C  0.50274895  0.35750378  0.58311425    -0.04600
C2258       C  0.50446124  0.39388659  0.58183310     0.02400
C2259       C  0.61453198  0.46446910  0.58143838     0.09200
C2260       C  0.60986317  0.39053847  0.58635930     0.35100
C2261       C  0.46886511  0.39583796  0.58168316     0.38600
C2262       C  0.62799285  0.49112325  0.59161712    -0.05000
C2263       C  0.66348750  0.52670795  0.59061755     0.02200
C2264       C  0.68680120  0.53537870  0.57958453    -0.04600
C2265       C  0.67330881  0.50828163  0.56941799    -0.00800
C2266       C  0.63725425  0.47318400  0.57033052    -0.03400
C2267       C  0.60506675  0.48179622  0.60314659     0.35900
C2268       C  0.69659266  0.51589079  0.55803342     0.39500
C2269       C  0.67458785  0.55528092  0.60068212     0.38600
C2270       C  0.62343056  0.44596065  0.55979139     0.35500
C2271       C  0.54260901  0.46579216  0.57937238     0.36200
C2272       C  0.53703263  0.31967303  0.58538150     0.39500
N2273       N  0.68282568  0.57806550  0.60868838    -0.38600
N2274       N  0.58660832  0.47413403  0.61230826    -0.40200
N2275       N  0.71476661  0.52158613  0.54887854    -0.37900
N2276       N  0.61259065  0.42428858  0.55137820    -0.40300
N2277       N  0.63824657  0.38964599  0.58811074    -0.40100
N2278       N  0.53621314  0.29013906  0.58611593    -0.37700
N2279       N  0.44066764  0.39778341  0.58171833    -0.38800
N2280       N  0.54440948  0.49561605  0.57797782    -0.40400
C2281       C  0.11421383  0.78230348  0.31768986    -0.05400
C2282       C  0.12475461  0.81219118  0.32668586     0.08800
C2283       C  0.13367046  0.84965821  0.32259198    -0.02800
C2284       C  0.13487842  0.85789527  0.30954152    -0.01000
C2285       C  0.13073790  0.82968915  0.30042406    -0.04600
C2286       C  0.11728986  0.79091599  0.30462730     0.02400
C2287       C  0.12552361  0.80439544  0.34054446     0.09200
C2288       C  0.14236785  0.88005760  0.33186811     0.35100
C2289       C  0.10497180  0.75930049  0.29557329     0.38600
C2290       C  0.15601158  0.80017459  0.34571096    -0.05000
C2291       C  0.16064156  0.80004233  0.35900368     0.02200
C2292       C  0.13506375  0.80503793  0.36727884    -0.04600
C2293       C  0.10096379  0.80295220  0.36186143    -0.00800
C2294       C  0.09672598  0.80319802  0.34860543    -0.03400
C2295       C  0.18291018  0.79644135  0.33727065     0.35900
C2296       C  0.06936601  0.79984535  0.36968717     0.39500
C2297       C  0.19141184  0.79406872  0.36392394     0.38600
C2298       C  0.06287553  0.80287224  0.34315758     0.35500
C2299       C  0.10017574  0.74264003  0.32190608     0.36200
C2300       C  0.13870436  0.89478142  0.30573615     0.39500
N2301       N  0.21570266  0.78862480  0.36770444    -0.38600
N2302       N  0.20382449  0.79292484  0.33044093    -0.40200
N2303       N  0.04375468  0.79720771  0.37572845    -0.37900
N2304       N  0.03601276  0.80267625  0.33876401    -0.40300
N2305       N  0.14919675  0.90409041  0.33932382    -0.40100
N2306       N  0.14047457  0.92383040  0.30290076    -0.37700
N2307       N  0.09487563  0.73395008  0.28839341    -0.38800
N2308       N  0.08886237  0.71096262  0.32524894    -0.40400
C2309       C  0.95420524  0.83560875  0.42492814    -0.05400
C2310       C  0.95204795  0.86843263  0.42888337     0.08800
C2311       C  0.98622410  0.90255641  0.43268545    -0.02800
C2312       C  0.02265175  0.90418708  0.43230940    -0.01000
C2313       C  0.02507567  0.87139745  0.42819550    -0.04600
C2314       C  0.99035958  0.83677402  0.42479946     0.02400
C2315       C  0.91364372  0.86709360  0.42912937     0.09200
C2316       C  0.98377801  0.93617436  0.43685821     0.35100
C2317       C  0.99123486  0.80155497  0.42166382     0.38600
C2318       C  0.88885243  0.85162513  0.43974611    -0.05000
C2319       C  0.85332017  0.85183075  0.44020575     0.02200
C2320       C  0.84191967  0.86644930  0.42986346    -0.04600
C2321       C  0.86686667  0.88196981  0.41925005    -0.00800
C2322       C  0.90254119  0.88220976  0.41888047    -0.03400
C2323       C  0.89978979  0.83496144  0.45008710     0.35900
C2324       C  0.85669812  0.89948364  0.40894906     0.39500
C2325       C  0.82833463  0.83658619  0.45123663     0.38600
C2326       C  0.92786173  0.89799814  0.40793130     0.35500
C2327       C  0.91915255  0.80061885  0.42087131     0.36200
C2328       C  0.05756649  0.94002828  0.43587859     0.39500
N2329       N  0.80854423  0.82470119  0.46008345    -0.38600
N2330       N  0.90858200  0.82139677  0.45823974    -0.40200
N2331       N  0.84875638  0.91380800  0.40080921    -0.37900
N2332       N  0.94792474  0.91063181  0.39916910    -0.40300
N2333       N  0.98162445  0.96289642  0.44016086    -0.40100
N2334       N  0.08530931  0.96858800  0.43881578    -0.37700
N2335       N  0.99129695  0.77308552  0.41926451    -0.38800
N2336       N  0.89138700  0.77263161  0.41757693    -0.40400
C2337       C  0.38541976  0.85141075  0.42897861    -0.05400
C2338       C  0.41276200  0.87088280  0.41921263     0.08800
C2339       C  0.40295277  0.88782940  0.40914356    -0.02800
C2340       C  0.36687144  0.88702087  0.40914777    -0.01000
C2341       C  0.33960513  0.86771275  0.41894875    -0.04600
C2342       C  0.34880427  0.84936657  0.42875055     0.02400
C2343       C  0.45205277  0.87378037  0.41959231     0.09200
C2344       C  0.43003446  0.90589288  0.39873456     0.35100
C2345       C  0.32009636  0.82758875  0.43846235     0.38600
C2346       C  0.45593922  0.84153289  0.41616397    -0.05000
C2347       C  0.49239862  0.84342859  0.41717898     0.02200
C2348       C  0.52610040  0.87845076  0.42104509    -0.04600
C2349       C  0.52231220  0.91138197  0.42389035    -0.00800
C2350       C  0.48531729  0.90867773  0.42347550    -0.03400
C2351       C  0.42220232  0.80623494  0.41155794     0.35900
C2352       C  0.55649913  0.94861591  0.42673753     0.39500
C2353       C  0.49435970  0.80845886  0.41469212     0.38600
C2354       C  0.48118700  0.94168446  0.42719813     0.35500
C2355       C  0.39508294  0.83361183  0.43930161     0.36200
C2356       C  0.35879921  0.90780209  0.39941685     0.39500
N2357       N  0.49510903  0.78014770  0.41267219    -0.38600
N2358       N  0.39539104  0.77813211  0.40782217    -0.40200
N2359       N  0.58349678  0.97869502  0.42886786    -0.37900
N2360       N  0.47749192  0.96775266  0.43020287    -0.40300
N2361       N  0.45162247  0.92001196  0.39040180    -0.40100
N2362       N  0.35293080  0.92491619  0.39168460    -0.37700
N2363       N  0.29689037  0.80997592  0.44609538    -0.38800
N2364       N  0.40276976  0.81934141  0.44752416    -0.40400
C2365       C  0.25013105  0.02562419  0.48668140    -0.05400
C2366       C  0.27408356  0.02014269  0.49531401     0.08800
C2367       C  0.28424649  0.99144327  0.49279783    -0.02800
C2368       C  0.27072369  0.96837452  0.48168758    -0.01000
C2369       C  0.24564650  0.97288660  0.47305415    -0.04600
C2370       C  0.23502073  0.00154727  0.47585529     0.02400
C2371       C  0.28674187  0.04334298  0.50742649     0.09200
C2372       C  0.30814183  0.98523099  0.50186374     0.35100
C2373       C  0.20799970  0.00637749  0.46784374     0.38600
C2374       C  0.25944179  0.03513012  0.51718638    -0.05000
C2375       C  0.26987056  0.05881590  0.52812189     0.02200
C2376       C  0.30885632  0.08961980  0.52993228    -0.04600
C2377       C  0.33661085  0.09677401  0.52023162    -0.00800
C2378       C  0.32525490  0.07434215  0.50894760    -0.03400
C2379       C  0.22023350  0.00214194  0.51588462     0.35900
C2380       C  0.37654880  0.12829127  0.52135890     0.39500
C2381       C  0.23962468  0.05161693  0.53725186     0.38600
C2382       C  0.35289291  0.08378760  0.49866101     0.35500
C2383       C  0.24104718  0.05633614  0.48903564     0.36200
C2384       C  0.28166557  0.93896461  0.47959042     0.39500
N2385       N  0.21484835  0.04615326  0.54422457    -0.38600
N2386       N  0.18906182  0.97575544  0.51479342    -0.40200
N2387       N  0.40873133  0.15305438  0.52181981    -0.37900
N2388       N  0.37467025  0.09121385  0.49038306    -0.40300
N2389       N  0.32720538  0.98055168  0.50916481    -0.40100
N2390       N  0.29091325  0.91579014  0.47810459    -0.37700
N2391       N  0.18584226  0.01007574  0.46171672    -0.38800
N2392       N  0.23412284  0.08097067  0.49102502    -0.40400
C2393       C  0.25684484  0.41738317  0.32036036    -0.05400
C2394       C  0.24621404  0.38409567  0.32781028     0.08800
C2395       C  0.23603988  0.34830706  0.32188531    -0.02800
C2396       C  0.23537227  0.34556290  0.30852541    -0.01000
C2397       C  0.24376287  0.37840509  0.30099079    -0.04600
C2398       C  0.25466776  0.41446217  0.30704222     0.02400
C2399       C  0.24222318  0.38621004  0.34185470     0.09200
C2400       C  0.22539082  0.31412158  0.32957717     0.35100
C2401       C  0.26116803  0.44820462  0.29974458     0.38600
C2402       C  0.20940802  0.38680551  0.34679761    -0.05000
C2403       C  0.20548147  0.38958875  0.35997322     0.02200
C2404       C  0.23373238  0.39043559  0.36834628    -0.04600
C2405       C  0.26687312  0.39040101  0.36338306    -0.00800
C2406       C  0.27136717  0.38885577  0.35014966    -0.03400
C2407       C  0.17948182  0.38417817  0.33824617     0.35900
C2408       C  0.29675638  0.39294080  0.37191150     0.39500
C2409       C  0.17183283  0.39070420  0.36487030     0.38600
C2410       C  0.30612727  0.39055207  0.34500472     0.35500
C2411       C  0.26925632  0.45458705  0.32650797     0.36200
C2412       C  0.22641534  0.30900416  0.30255876     0.39500
N2413       N  0.14497849  0.39185266  0.36863102    -0.38600
N2414       N  0.15585690  0.38210058  0.33132551    -0.40200
N2415       N  0.32052489  0.39509908  0.37878143    -0.37900
N2416       N  0.33385729  0.39207911  0.34080549    -0.40300
N2417       N  0.21690874  0.28691570  0.33575424    -0.40100
N2418       N  0.21940897  0.27993217  0.29775656    -0.37700
N2419       N  0.26614792  0.47536956  0.29411999    -0.38800
N2420       N  0.27927473  0.48413916  0.33149429    -0.40400
C2421       C  0.15656860  0.14690636  0.43652921    -0.05400
C2422       C  0.18684124  0.14405291  0.43050196     0.08800
C2423       C  0.21616849  0.17651048  0.42396568    -0.02800
C2424       C  0.21532399  0.21163424  0.42340526    -0.01000
C2425       C  0.18403136  0.21430577  0.42896796    -0.04600
C2426       C  0.15447197  0.18135586  0.43549216     0.02400
C2427       C  0.18619765  0.10591100  0.43003902     0.09200
C2428       C  0.24683480  0.17335781  0.41747894     0.35100
C2429       C  0.12045943  0.18163649  0.44050489     0.38600
C2430       C  0.15928242  0.07586095  0.42202413    -0.05000
C2431       C  0.16026850  0.04094142  0.42074913     0.02200
C2432       C  0.18779324  0.03560928  0.42761759    -0.04600
C2433       C  0.21557290  0.06606870  0.43527443    -0.00800
C2434       C  0.21434469  0.10085525  0.43668057    -0.03400
C2435       C  0.13117191  0.08135425  0.41483627     0.35900
C2436       C  0.24674831  0.06244991  0.44112818     0.39500
C2437       C  0.13416701  0.01125214  0.41190417     0.38600
C2438       C  0.24258138  0.13176473  0.44474815     0.35500
C2439       C  0.12707414  0.11391753  0.44361547     0.36200
C2440       C  0.24708984  0.24477644  0.41705235     0.39500
N2441       N  0.11362061  0.98790800  0.40471323    -0.38600
N2442       N  0.10872985  0.08589458  0.40918263    -0.40200
N2443       N  0.27187389  0.05977837  0.44569156    -0.37900
N2444       N  0.26536850  0.15642494  0.45112859    -0.40300
N2445       N  0.27122319  0.17071982  0.41233097    -0.40100
N2446       N  0.27262131  0.27073377  0.41187850    -0.37700
N2447       N  0.09319351  0.18172039  0.44442144    -0.38800
N2448       N  0.10358145  0.08758632  0.44926405    -0.40400
C2449       C  0.19482088  0.59302282  0.42824037    -0.05400
C2450       C  0.17993648  0.60035231  0.41704478     0.08800
C2451       C  0.16491262  0.57177027  0.40740508    -0.02800
C2452       C  0.16351561  0.53570640  0.40911792    -0.01000
C2453       C  0.17850844  0.52842252  0.42030815    -0.04600
C2454       C  0.19445973  0.55743303  0.42981001     0.02400
C2455       C  0.17894948  0.63767356  0.41567941     0.09200
C2456       C  0.15148888  0.57982546  0.39562439     0.35100
C2457       C  0.21191001  0.55128430  0.44101814     0.38600
C2458       C  0.21335440  0.67315445  0.41306386    -0.05000
C2459       C  0.21319884  0.70881348  0.41330279     0.02200
C2460       C  0.17832483  0.70930601  0.41599512    -0.04600
C2461       C  0.14344454  0.67330869  0.41784358    -0.00800
C2462       C  0.14373744  0.63780347  0.41755049    -0.03400
C2463       C  0.24890309  0.67284591  0.40998302     0.35900
C2464       C  0.10675957  0.67231529  0.41987284     0.39500
C2465       C  0.24951421  0.74499008  0.41135462     0.38600
C2466       C  0.10747333  0.60120082  0.41899207     0.35500
C2467       C  0.21081004  0.62226620  0.43816068     0.36200
C2468       C  0.14547109  0.50557552  0.39952228     0.39500
N2469       N  0.27866471  0.77366185  0.40978749    -0.38600
N2470       N  0.27722813  0.67266859  0.40741523    -0.40200
N2471       N  0.07710393  0.67069519  0.42150842    -0.37900
N2472       N  0.07831640  0.57212976  0.41991654    -0.40300
N2473       N  0.14103088  0.58643164  0.38619888    -0.40100
N2474       N  0.13089116  0.48134602  0.39193741    -0.37700
N2475       N  0.22596898  0.54631465  0.44990618    -0.38800
N2476       N  0.22378128  0.64550253  0.44610216    -0.40400
C2477       C  0.47773737  0.65569480  0.41082789    -0.05400
C2478       C  0.44797163  0.64529377  0.41992028     0.08800
C2479       C  0.45353672  0.67131107  0.42992738    -0.02800
C2480       C  0.48903046  0.70693899  0.43102975    -0.01000
C2481       C  0.51951899  0.71651629  0.42225591    -0.04600
C2482       C  0.51344314  0.69098164  0.41202925     0.02400
C2483       C  0.41186100  0.60580614  0.41940877     0.09200
C2484       C  0.42297459  0.66096024  0.43924892     0.35100
C2485       C  0.54449800  0.70005446  0.40301139     0.38600
C2486       C  0.41380834  0.57252183  0.42295408    -0.05000
C2487       C  0.37997395  0.53528931  0.42282844     0.02200
C2488       C  0.34339634  0.53078360  0.41919573    -0.04600
C2489       C  0.34183844  0.56438089  0.41540427    -0.00800
C2490       C  0.37586873  0.60156017  0.41552129    -0.03400
C2491       C  0.45085938  0.57673615  0.42691100     0.35900
C2492       C  0.30502099  0.56140280  0.41188474     0.39500
C2493       C  0.38363572  0.50188901  0.42632528     0.38600
C2494       C  0.37371913  0.63568435  0.41181592     0.35500
C2495       C  0.47182499  0.62954335  0.40035390     0.36200
C2496       C  0.49381202  0.73417486  0.44102306     0.39500
N2497       N  0.38801308  0.47616639  0.42919440    -0.38600
N2498       N  0.48042459  0.58010201  0.43000247    -0.40200
N2499       N  0.27582742  0.55933015  0.40903540    -0.37900
N2500       N  0.37175653  0.66281544  0.40892751    -0.40300
N2501       N  0.39847863  0.65259612  0.44665170    -0.40100
N2502       N  0.49749325  0.75599770  0.44894328    -0.37700
N2503       N  0.56912803  0.70692613  0.39579586    -0.38800
N2504       N  0.46711193  0.60856090  0.39203788    -0.40400
C2505       C  0.96750498  0.15935686  0.44314053    -0.05400
C2506       C  0.95016722  0.13627461  0.43228471     0.08800
C2507       C  0.96837269  0.14915459  0.42038873    -0.02800
C2508       C  0.00361656  0.18496439  0.41931079    -0.01000
C2509       C  0.02059528  0.20887345  0.43010682    -0.04600
C2510       C  0.00238179  0.19562065  0.44206732     0.02400
C2511       C  0.91269178  0.09818184  0.43326714     0.09200
C2512       C  0.95073253  0.12525042  0.40923585     0.35100
C2513       C  0.01887977  0.21956083  0.45328089     0.38600
C2514       C  0.87663552  0.09723123  0.43263753    -0.05000
C2515       C  0.84137435  0.06122043  0.43241508     0.02200
C2516       C  0.84183996  0.02574378  0.43293974    -0.04600
C2517       C  0.87797885  0.02681840  0.43395992    -0.00800
C2518       C  0.91322826  0.06288520  0.43403101    -0.03400
C2519       C  0.87584214  0.13338173  0.43192253     0.35900
C2520       C  0.87917308  0.99084385  0.43434077     0.39500
C2521       C  0.80456185  0.06080223  0.43170295     0.38600
C2522       C  0.95022049  0.06368908  0.43451657     0.35500
C2523       C  0.94952305  0.14560664  0.45544744     0.36200
C2524       C  0.02319357  0.19618609  0.40714006     0.39500
N2525       N  0.77524818  0.06053022  0.43110537    -0.38600
N2526       N  0.87495285  0.16209054  0.43135413    -0.40200
N2527       N  0.88029521  0.96224125  0.43468966    -0.37900
N2528       N  0.97966500  0.06417476  0.43484464    -0.40300
N2529       N  0.93650756  0.10603644  0.40038332    -0.40100
N2530       N  0.03878721  0.20478600  0.39742105    -0.37700
N2531       N  0.03194895  0.23848173  0.46226442    -0.38800
N2532       N  0.93539321  0.13468093  0.46529828    -0.40400
C2533       C  0.83900399  0.14662546  0.65365149    -0.05400
C2534       C  0.81347236  0.15310632  0.66120059     0.08800
C2535       C  0.78620303  0.16119170  0.65536249    -0.02800
C2536       C  0.78539742  0.16399412  0.64201232    -0.01000
C2537       C  0.81242112  0.15947672  0.63446453    -0.04600
C2538       C  0.83935130  0.15090780  0.64041689     0.02400
C2539       C  0.81760982  0.15391032  0.67531809     0.09200
C2540       C  0.75920059  0.16685796  0.66311179     0.35100
C2541       C  0.86928690  0.14878422  0.63311686     0.38600
C2542       C  0.84992202  0.18585584  0.68114229    -0.05000
C2543       C  0.85562082  0.18595563  0.69432214     0.02200
C2544       C  0.82873790  0.15434593  0.70181965    -0.04600
C2545       C  0.79670216  0.12217753  0.69598578    -0.00800
C2546       C  0.79128012  0.12186567  0.68275013    -0.03400
C2547       C  0.87737634  0.21865160  0.67350961     0.35900
C2548       C  0.77000704  0.08895037  0.70357772     0.39500
C2549       C  0.88868584  0.21913128  0.70021051     0.38600
C2550       C  0.75901787  0.08838073  0.67671838     0.35500
C2551       C  0.86524794  0.13574361  0.65959277     0.36200
C2552       C  0.75649587  0.17103629  0.63605675     0.39500
N2553       N  0.91513362  0.24549410  0.70490788    -0.38600
N2554       N  0.89925666  0.24459432  0.66735424    -0.40200
N2555       N  0.74888813  0.06238292  0.70965450    -0.37900
N2556       N  0.73329920  0.06172169  0.67185893    -0.40300
N2557       N  0.73753114  0.17119749  0.66930092    -0.40100
N2558       N  0.73345168  0.17660620  0.63126610    -0.37700
N2559       N  0.89364374  0.14730282  0.62752291    -0.38800
N2560       N  0.88594755  0.12686904  0.66436665    -0.40400
C2561       C  0.85850903  0.40984332  0.59589290    -0.05400
C2562       C  0.84379517  0.42239259  0.58585925     0.08800
C2563       C  0.82891166  0.39882585  0.57493116    -0.02800
C2564       C  0.82924399  0.36343655  0.57396574    -0.01000
C2565       C  0.84558016  0.35170935  0.58375072    -0.04600
C2566       C  0.85981827  0.37493137  0.59479215     0.02400
C2567       C  0.84572025  0.46130427  0.58647815     0.09200
C2568       C  0.81363337  0.41126379  0.56457362     0.35100
C2569       C  0.87707266  0.36368497  0.60487271     0.38600
C2570       C  0.88179283  0.49593801  0.58486370    -0.05000
C2571       C  0.88379858  0.53255271  0.58489222     0.02200
C2572       C  0.84942214  0.53502082  0.58590720    -0.04600
C2573       C  0.81325828  0.50020444  0.58772839    -0.00800
C2574       C  0.81157029  0.46366812  0.58816732    -0.03400
C2575       C  0.91688152  0.49379942  0.58275031     0.35900
C2576       C  0.77733017  0.50146155  0.58855694     0.39500
C2577       C  0.92165840  0.56767944  0.58424430     0.38600
C2578       C  0.77445992  0.42826500  0.59005762     0.35500
C2579       C  0.87248833  0.43297335  0.60736704     0.36200
C2580       C  0.81130360  0.33827013  0.56308538     0.39500
N2581       N  0.95221322  0.59529776  0.58387637    -0.38600
N2582       N  0.94482331  0.49206359  0.58100851    -0.40200
N2583       N  0.74851423  0.50215810  0.58920653    -0.37900
N2584       N  0.74484083  0.40000109  0.59150675    -0.40300
N2585       N  0.80135819  0.42115313  0.55632742    -0.40100
N2586       N  0.79671696  0.31789669  0.55449461    -0.37700
N2587       N  0.89092204  0.35480392  0.61291464    -0.38800
N2588       N  0.88367430  0.45121354  0.61656600    -0.40400
C2589       C  0.87965086  0.99978465  0.56104394    -0.05400
C2590       C  0.85306409  0.96698104  0.56808638     0.08800
C2591       C  0.82433797  0.96887939  0.57540591    -0.02800
C2592       C  0.82260810  0.00360638  0.57596255    -0.01000
C2593       C  0.85092813  0.03785653  0.56959282    -0.04600
C2594       C  0.87895898  0.03510899  0.56182800     0.02400
C2595       C  0.85527990  0.93022580  0.56803785     0.09200
C2596       C  0.79654454  0.93476985  0.58247982     0.35100
C2597       C  0.90819878  0.06857279  0.55485100     0.38600
C2598       C  0.87549224  0.92333772  0.57778639    -0.05000
C2599       C  0.87364575  0.88686355  0.57868821     0.02200
C2600       C  0.85218798  0.85730488  0.56970046    -0.04600
C2601       C  0.83414272  0.86515111  0.55948037    -0.00800
C2602       C  0.83514281  0.90126802  0.55876641    -0.03400
C2603       C  0.89804298  0.95392672  0.58688334     0.35900
C2604       C  0.81428729  0.83593924  0.54975615     0.39500
C2605       C  0.89437489  0.87981003  0.58871752     0.38600
C2606       C  0.81485448  0.90851456  0.54864453     0.35500
C2607       C  0.90822673  0.99728806  0.55309431     0.36200
C2608       C  0.79054949  0.00302342  0.58281938     0.39500
N2609       N  0.91092928  0.87384136  0.59663009    -0.38600
N2610       N  0.91609823  0.97868352  0.59403122    -0.40200
N2611       N  0.79873033  0.81280148  0.54191779    -0.37900
N2612       N  0.79868600  0.91451518  0.54060950    -0.40300
N2613       N  0.77461496  0.90750219  0.58812824    -0.40100
N2614       N  0.76465605  0.00188619  0.58828394    -0.37700
N2615       N  0.93176781  0.09500096  0.54925156    -0.38800
N2616       N  0.93100072  0.99545998  0.54669580    -0.40400
C2617       C  0.61502954  0.15196575  0.58673650    -0.05400
C2618       C  0.61532109  0.18763039  0.58783491     0.08800
C2619       C  0.65128707  0.22258473  0.58909992    -0.02800
C2620       C  0.68676772  0.22216170  0.58867996    -0.01000
C2621       C  0.68667278  0.18663910  0.58698050    -0.04600
C2622       C  0.65048625  0.15141384  0.58641420     0.02400
C2623       C  0.57797292  0.18877286  0.58681357     0.09200
C2624       C  0.65169026  0.25920463  0.59049574     0.35100
C2625       C  0.64962818  0.11442558  0.58593125     0.38600
C2626       C  0.55422811  0.18254387  0.59752262    -0.05000
C2627       C  0.51883208  0.18308054  0.59639329     0.02200
C2628       C  0.50755075  0.19155792  0.58458461    -0.04600
C2629       C  0.53205871  0.19844940  0.57390904    -0.00800
C2630       C  0.56663178  0.19653522  0.57501708    -0.03400
C2631       C  0.56655995  0.17592226  0.60975011     0.35900
C2632       C  0.52264283  0.20868696  0.56175011     0.39500
C2633       C  0.49326331  0.17280502  0.60729336     0.38600
C2634       C  0.59097849  0.20285645  0.56397958     0.35500
C2635       C  0.57811685  0.11587109  0.58571398     0.36200
C2636       C  0.72336533  0.25866058  0.58948577     0.39500
N2637       N  0.47294088  0.16405081  0.61603314    -0.38600
N2638       N  0.57666368  0.17094349  0.61950714    -0.40200
N2639       N  0.51556370  0.21693353  0.55199197    -0.37900
N2640       N  0.61056328  0.20787041  0.55522909    -0.40300
N2641       N  0.65188422  0.28836492  0.59158525    -0.40100
N2642       N  0.75242487  0.28790390  0.59018365    -0.37700
N2643       N  0.64868812  0.08476822  0.58572625    -0.38800
N2644       N  0.54858841  0.08712879  0.58490880    -0.40400
C2645       C  0.08217253  0.22853095  0.56753278    -0.05400
C2646       C  0.08097735  0.19290907  0.57005718     0.08800
C2647       C  0.04476906  0.15912978  0.57253988    -0.02800
C2648       C  0.01056178  0.16155783  0.57347146    -0.01000
C2649       C  0.01174109  0.19710172  0.57094857    -0.04600
C2650       C  0.04751845  0.23045030  0.56779214     0.02400
C2651       C  0.11800425  0.19155721  0.57144024     0.09200
C2652       C  0.04298287  0.12202019  0.57447228     0.35100
C2653       C  0.04866086  0.26684877  0.56501228     0.38600
C2654       C  0.12983447  0.18660332  0.58356492    -0.05000
C2655       C  0.16339750  0.18318588  0.58501690     0.02200
C2656       C  0.18751386  0.18772222  0.57446057    -0.04600
C2657       C  0.17598822  0.19383839  0.56231277    -0.00800
C2658       C  0.14079993  0.19444889  0.56079390    -0.03400
C2659       C  0.10717666  0.18490770  0.59462840     0.35900
C2660       C  0.20077954  0.20130452  0.55134466     0.39500
C2661       C  0.17133730  0.17283345  0.59737225     0.38600
C2662       C  0.12776843  0.19770613  0.54823665     0.35500
C2663       C  0.11918180  0.26343094  0.56503994     0.36200
C2664       C  0.97494743  0.12843081  0.57815599     0.39500
N2665       N  0.17597040  0.16391396  0.60736830    -0.38600
N2666       N  0.08900439  0.18354739  0.60340614    -0.40200
N2667       N  0.22002989  0.20786249  0.54241223    -0.37900
N2668       N  0.11727376  0.20016688  0.53822605    -0.40300
N2669       N  0.04172165  0.09249380  0.57599451    -0.40100
N2670       N  0.94685912  0.10230583  0.58219430    -0.37700
N2671       N  0.04940377  0.29581136  0.56280856    -0.38800
N2672       N  0.14872397  0.29124922  0.56302191    -0.40400
C2673       C  0.01278240  0.31282543  0.51846762    -0.05400
C2674       C  0.00382223  0.29008050  0.50733673     0.08800
C2675       C  0.96878834  0.25394630  0.50668590    -0.02800
C2676       C  0.94270424  0.24081754  0.51701448    -0.01000
C2677       C  0.95236711  0.26266952  0.52837237    -0.04600
C2678       C  0.98743661  0.29897718  0.52900879     0.02400
C2679       C  0.03107569  0.30421565  0.49621440     0.09200
C2680       C  0.95974631  0.23006338  0.49537884     0.35100
C2681       C  0.99812718  0.32165737  0.54062258     0.38600
C2682       C  0.06610277  0.30305032  0.49652093    -0.05000
C2683       C  0.09147324  0.31579658  0.48596689     0.02200
C2684       C  0.08150381  0.32888180  0.47486050    -0.04600
C2685       C  0.04626369  0.32987970  0.47459527    -0.00800
C2686       C  0.02129335  0.31771953  0.48522373    -0.03400
C2687       C  0.07536575  0.28756207  0.50760290     0.35900
C2688       C  0.03455917  0.34166633  0.46317478     0.39500
C2689       C  0.12829488  0.31638180  0.48675508     0.38600
C2690       C  0.98476695  0.31789707  0.48471651     0.35500
C2691       C  0.04827601  0.35042302  0.51908615     0.36200
C2692       C  0.90499764  0.20580560  0.51565365     0.39500
N2693       N  0.15768581  0.31693531  0.48763614    -0.38600
N2694       N  0.08241624  0.27497647  0.51645186    -0.40200
N2695       N  0.02489251  0.35086088  0.45409234    -0.37900
N2696       N  0.95538713  0.31752167  0.48427125    -0.40300
N2697       N  0.95261231  0.21107714  0.48635050    -0.40100
N2698       N  0.87474205  0.17823387  0.51434045    -0.37700
N2699       N  0.00668788  0.33975072  0.54988427    -0.38800
N2700       N  0.07663122  0.38038284  0.51958825    -0.40400
loop_ 
_geom_bond_atom_site_label_1 
_geom_bond_atom_site_label_2 
_geom_bond_distance 
_geom_bond_site_symmetry_2 
_ccdc_geom_bond_type 
Zr1           O2   2.436       .  S
Zr1           O3   2.432       .  S
Zr1           O4   2.436       .  S
Zr1           O7   2.431       .  S
Zr1           O9   2.382       .  S
Zr1          O10   2.382       .  S
Zr1          O11   2.408       .  S
Zr1          O12   2.404       .  S
O2           H58   0.990       .  S
O2           H66   0.989       .  S
O3           C23   1.283       .  A
O4           C25   1.285       .  A
O5          Zr15   2.446       .  S
O5           C24   1.285       .  A
O6          Zr14   2.431       .  S
O6           C25   1.284       .  A
O7           C24   1.284       .  A
O8          Zr16   2.427       .  S
O8           C23   1.282       .  A
O9          Zr14   2.391       .  S
O9          Zr16   2.369       .  S
O10         Zr15   2.387       .  S
O10         Zr16   2.382       .  S
O10          H45   0.965       .  S
O11         Zr14   2.396       .  S
O11         Zr31   2.409       .  S
O11          H48   0.966       .  S
O12         Zr15   2.381       .  S
O12         Zr31   2.400       .  S
Zr13         O38   2.441       .  S
Zr13         O32   2.447       .  S
Zr13         O40   2.458       .  S
Zr13         O28   2.445       .  S
Zr13         O19   2.403       .  S
Zr13         O20   2.414       .  S
Zr13         O21   2.381       .  S
Zr13         O22   2.390       .  S
Zr14         O33   2.436       .  S
Zr14         O26   2.434       .  S
Zr14         O27   2.428       .  S
Zr14         O20   2.400       .  S
Zr14         O21   2.389       .  S
Zr15         O17   2.434       .  S
Zr15         O39   2.439       .  S
Zr15         O41   2.414       .  S
Zr15         O19   2.401       .  S
Zr15         O22   2.397       .  S
Zr16         O42   2.433       .  S
Zr16         O43   2.436       .  S
Zr16         O18   2.438       .  S
Zr16         O19   2.389       .  S
Zr16         O20   2.401       .  S
O17          H54   0.990       .  S
O18          H49   0.990   1_655  S
O18          H63   0.990       .  S
O20          H46   0.966       .  S
O21         Zr31   2.375       .  S
O22         Zr31   2.387       .  S
O22          H47   0.974       .  S
C23        C2649   1.480   1_655  S
C24        C2593   1.512       .  S
C25        C2677   1.488       .  S
O26          H62   0.990       .  S
O27          C29   1.284       .  A
O28          C29   1.286       .  A
C29        C2565   1.493       .  S
O30         Zr31   2.440       .  S
O30          H59   0.990       .  S
Zr31         O34   2.436       .  S
Zr31         O35   2.437       .  S
Zr31         O36   2.436       .  S
O32          C37   1.286       .  A
O33          H50   0.990       .  S
O33          H65   0.990       .  S
O34          H51   0.990       .  S
O35          H55   0.990       .  S
O35          H64   0.989       .  S
O36          C37   1.284       .  A
C37        C2621   1.497       .  S
O38          H57   0.990       .  S
O38          H61   0.990       .  S
O39          H53   0.990       .  S
O39          H60   0.990       .  S
O40          C44   1.288       .  A
O41          C44   1.281       .  A
O42          H52   0.990       .  S
O43          H56   0.990       .  S
C44        C2537   1.490       .  S
Zr67         O68   2.435       .  S
Zr67         O69   2.433       .  S
Zr67         O70   2.442       .  S
Zr67         O73   2.428       .  S
Zr67         O75   2.380       .  S
Zr67         O76   2.385       .  S
Zr67         O77   2.401       .  S
Zr67         O78   2.399       .  S
O68         H124   0.990       .  S
O68         H132   0.990       .  S
O69          C89   1.285       .  A
O70          C91   1.286       .  A
O71         Zr81   2.436       .  S
O71          C90   1.285       .  A
O72         Zr80   2.436       .  S
O72          C91   1.286       .  A
O73          C90   1.285       .  A
O74         Zr82   2.441       .  S
O74          C89   1.286       .  A
O75         Zr80   2.392       .  S
O75         Zr82   2.372       .  S
O76         Zr81   2.388       .  S
O76         Zr82   2.373       .  S
O76         H111   0.968       .  S
O77         Zr80   2.391       .  S
O77         Zr97   2.401       .  S
O77         H114   0.968       .  S
O78         Zr81   2.386       .  S
O78         Zr97   2.394       .  S
Zr79        O104   2.441       .  S
Zr79         O98   2.452       .  S
Zr79        O106   2.446       .  S
Zr79         O94   2.432       .  S
Zr79         O85   2.402       .  S
Zr79         O86   2.411       .  S
Zr79         O87   2.379       .  S
Zr79         O88   2.381       .  S
Zr80         O99   2.436       .  S
Zr80         O92   2.433       .  S
Zr80         O93   2.439       .  S
Zr80         O86   2.396       .  S
Zr80         O87   2.388       .  S
Zr81         O83   2.432       .  S
Zr81        O105   2.440       .  S
Zr81        O107   2.423       .  S
Zr81         O85   2.395       .  S
Zr81         O88   2.395       .  S
Zr82        O108   2.435       .  S
Zr82        O109   2.435       .  S
Zr82         O84   2.436       .  S
Zr82         O85   2.393       .  S
Zr82         O86   2.400       .  S
O83         H120   0.990       .  S
O84         H115   0.990       .  S
O84         H129   0.990       .  S
O86         H112   0.967       .  S
O87         Zr97   2.378       .  S
O88         Zr97   2.388       .  S
O88         H113   0.971       .  S
C89        C2509   1.496       .  S
C90        C2425   1.501       .  S
C91        C2684   1.492       .  S
O92         H128   0.990       .  S
O93          C95   1.286       .  A
O94          C95   1.284       .  A
C95        C2453   1.491       .  S
O96         Zr97   2.441       .  S
O96         H125   0.990       .  S
Zr97        O100   2.438       .  S
Zr97        O101   2.437       .  S
Zr97        O102   2.423       .  S
O98         C103   1.287       .  A
O99         H116   0.990       .  S
O99         H131   0.990       .  S
O100        H117   0.990       .  S
O101        H121   0.989       .  S
O101        H130   0.990       .  S
O102        C103   1.282       .  A
C103       C2488   1.502       .  S
O104        H123   0.991       .  S
O104        H127   0.990       .  S
O105        H119   0.990       .  S
O105        H126   0.990       .  S
O106        C110   1.285       .  A
O107        C110   1.282       .  A
O108        H118   0.990       .  S
O109        H122   0.990       .  S
C110       C2404   1.484       .  S
Zr133       O134   2.440       .  S
Zr133       O135   2.441       .  S
Zr133       O136   2.442       .  S
Zr133       O139   2.438       .  S
Zr133       O141   2.378       .  S
Zr133       O142   2.381       .  S
Zr133       O143   2.408       .  S
Zr133       O144   2.404       .  S
O134        H190   0.990       .  S
O134        H198   0.990       .  S
O135        C155   1.285       .  A
O136        C157   1.286       .  A
O137       Zr147   2.422       .  S
O137        C156   1.283       .  A
O138       Zr146   2.446       .  S
O138        C157   1.288       .  A
O139        C156   1.286       .  A
O140       Zr148   2.423       .  S
O140        C155   1.281       .  A
O141       Zr146   2.384       .  S
O141       Zr148   2.372       .  S
O142       Zr147   2.381       .  S
O142       Zr148   2.378       .  S
O142        H177   0.966       .  S
O143       Zr146   2.390       .  S
O143       Zr163   2.408       .  S
O143        H180   0.975       .  S
O144       Zr147   2.386       .  S
O144       Zr163   2.398       .  S
Zr145       O170   2.443       .  S
Zr145       O164   2.443       .  S
Zr145       O172   2.466       .  S
Zr145       O160   2.457       .  S
Zr145       O151   2.401       .  S
Zr145       O152   2.414       .  S
Zr145       O153   2.383       .  S
Zr145       O154   2.385       .  S
Zr146       O165   2.434       .  S
Zr146       O158   2.434       .  S
Zr146       O159   2.418       .  S
Zr146       O152   2.401       .  S
Zr146       O153   2.388       .  S
Zr147       O149   2.435       .  S
Zr147       O171   2.440       .  S
Zr147       O173   2.405       .  S
Zr147       O151   2.387       .  S
Zr147       O154   2.391       .  S
Zr148       O174   2.435       .  S
Zr148       O175   2.435       .  S
Zr148       O150   2.436   1_565  S
Zr148       O151   2.393       .  S
Zr148       O152   2.394       .  S
O149        H186   0.990       .  S
O150        H181   0.990       .  S
O150        H195   0.990       .  S
O152        H178   0.969       .  S
O153       Zr163   2.371       .  S
O154       Zr163   2.381       .  S
O154        H179   0.968       .  S
C155       C2432   1.479   1_565  S
C156       C2313   1.492       .  S
C157       C2369   1.512       .  S
O158        H194   0.990       .  S
O159        C161   1.282       .  A
O160        C161   1.289       .  A
C161       C2341   1.486       .  S
O162       Zr163   2.441       .  S
O162        H191   0.990       .  S
Zr163       O166   2.437       .  S
Zr163       O167   2.438       .  S
Zr163       O168   2.442       .  S
O164        C169   1.287       .  A
O165        H182   0.990       .  S
O165        H197   0.989       .  S
O166        H183   0.990       .  S
O167        H187   0.990       .  S
O167        H196   0.989       .  S
O168        C169   1.287       .  A
C169       C2460   1.501       .  S
O170        H189   0.990       .  S
O170        H193   0.987       .  S
O171        H185   0.990       .  S
O171        H192   0.990       .  S
O172        C176   1.290       .  A
O173        C176   1.279       .  A
O174        H184   0.990       .  S
O175        H188   0.990       .  S
C176       C2292   1.515       .  S
Zr199       O200   2.435       .  S
Zr199       O201   2.429       .  S
Zr199       O202   2.442       .  S
Zr199       O205   2.440       .  S
Zr199       O207   2.379       .  S
Zr199       O208   2.379       .  S
Zr199       O209   2.400       .  S
Zr199       O210   2.402       .  S
O200        H256   0.990       .  S
O200        H264   0.990       .  S
O201        C221   1.282       .  A
O202        C223   1.286       .  A
O203       Zr213   2.448       .  S
O203        C222   1.288       .  A
O204       Zr212   2.444       .  S
O204        C223   1.286       .  A
O205        C222   1.286       .  A
O206       Zr214   2.425       .  S
O206        C221   1.281       .  A
O207       Zr212   2.392       .  S
O207       Zr214   2.372       .  S
O208       Zr213   2.388       .  S
O208       Zr214   2.382       .  S
O208        H243   0.964       .  S
O209       Zr212   2.397       .  S
O209       Zr229   2.402       .  S
O209        H246   0.974       .  S
O210       Zr213   2.388       .  S
O210       Zr229   2.397       .  S
Zr211       O236   2.440       .  S
Zr211       O230   2.441       .  S
Zr211       O238   2.455       .  S
Zr211       O226   2.467       .  S
Zr211       O217   2.398       .  S
Zr211       O218   2.415       .  S
Zr211       O219   2.380       .  S
Zr211       O220   2.390       .  S
Zr212       O231   2.431       .  S
Zr212       O224   2.433       .  S
Zr212       O225   2.431       .  S
Zr212       O218   2.404       .  S
Zr212       O219   2.397       .  S
Zr213       O215   2.437       .  S
Zr213       O237   2.432       .  S
Zr213       O239   2.417       .  S
Zr213       O217   2.393       .  S
Zr213       O220   2.400       .  S
Zr214       O240   2.436       .  S
Zr214       O241   2.435       .  S
Zr214       O216   2.435       .  S
Zr214       O217   2.389       .  S
Zr214       O218   2.398       .  S
O215        H252   0.990       .  S
O216        H247   0.990       .  S
O216        H261   0.990       .  S
O218        H244   0.967       .  S
O219       Zr229   2.382       .  S
O220       Zr229   2.388       .  S
O220        H245   0.970       .  S
C221       C2236   1.477       .  S
C222       C2656   1.503       .  S
C223       C2376   1.507       .  S
O224        H260   0.990       .  S
O225        C227   1.285       .  A
O226        C227   1.290       .  A
C227       C2628   1.506       .  S
O228       Zr229   2.439       .  S
O228        H257   0.990       .  S
Zr229       O232   2.437       .  S
Zr229       O233   2.439       .  S
Zr229       O234   2.423       .  S
O230        C235   1.284       .  A
O231        H248   0.989       .  S
O231        H263   0.990       .  S
O232        H249   0.990       .  S
O233        H253   0.990       .  S
O233        H262   0.989       .  S
O234        C235   1.281       .  A
C235       C2257   1.492       .  S
O236        H255   0.989       .  S
O236        H259   0.990       .  S
O237        H251   0.990       .  S
O237        H258   0.989       .  S
O238        C242   1.289       .  A
O239        C242   1.282       .  A
O240        H250   0.990       .  S
O241        H254   0.990       .  S
C242       C2201   1.495       .  S
Zr265       O266   2.435       .  S
Zr265       O267   2.440       .  S
Zr265       O268   2.433       .  S
Zr265       O271   2.436       .  S
Zr265       O273   2.378       .  S
Zr265       O274   2.376       .  S
Zr265       O275   2.415       .  S
Zr265       O276   2.401       .  S
O266        H322   0.990       .  S
O266        H330   0.990       .  S
O267        C287   1.285       .  A
O268        C289   1.285       .  A
O269       Zr279   2.429       .  S
O269        C288   1.283       .  A
O270       Zr278   2.441       .  S
O270        C289   1.286       .  A
O271        C288   1.286       .  A
O272       Zr280   2.421       .  S
O272        C287   1.282       .  A
O273       Zr278   2.386       .  S
O273       Zr280   2.367       .  S
O274       Zr279   2.382       .  S
O274       Zr280   2.380       .  S
O274        H309   0.970       .  S
O275       Zr278   2.397       .  S
O275       Zr295   2.414       .  S
O275        H312   0.970       .  S
O276       Zr279   2.380       .  S
O276       Zr295   2.398       .  S
Zr277       O302   2.437       .  S
Zr277       O296   2.436       .  S
Zr277       O304   2.472       .  S
Zr277       O292   2.445       .  S
Zr277       O283   2.390       .  S
Zr277       O284   2.415       .  S
Zr277       O285   2.385       .  S
Zr277       O286   2.388       .  S
Zr278       O297   2.438       .  S
Zr278       O290   2.434       .  S
Zr278       O291   2.429       .  S
Zr278       O284   2.406       .  S
Zr278       O285   2.393       .  S
Zr279       O281   2.435       .  S
Zr279       O303   2.440       .  S
Zr279       O305   2.405       .  S
Zr279       O283   2.388       .  S
Zr279       O286   2.395       .  S
Zr280       O306   2.435       .  S
Zr280       O307   2.436       .  S
Zr280       O282   2.437       .  S
Zr280       O283   2.381       .  S
Zr280       O284   2.402       .  S
O281        H318   0.990   1_565  S
O282        H313   0.990       .  S
O282        H327   0.990       .  S
O284        H310   0.966       .  S
O285       Zr295   2.374       .  S
O286       Zr295   2.390       .  S
O286        H311   0.964       .  S
C287       C2320   1.484       .  S
C288       C2516   1.490   1_565  S
C289       C2173   1.490       .  S
O290        H326   0.990       .  S
O291        C293   1.283       .  A
O292        C293   1.284       .  A
C293       C2481   1.488       .  S
O294       Zr295   2.442       .  S
O294        H323   0.990       .  S
Zr295       O298   2.437       .  S
Zr295       O299   2.438       .  S
Zr295       O300   2.443       .  S
O296        C301   1.284       .  A
O297        H314   0.990       .  S
O297        H329   0.990       .  S
O298        H315   0.990       .  S
O299        H319   0.990       .  S
O299        H328   0.989       .  S
O300        C301   1.286       .  A
C301       C2348   1.501       .  S
O302        H321   0.990       .  S
O302        H325   0.990       .  S
O303        H317   0.990       .  S
O303        H324   0.990       .  S
O304        C308   1.292       .  A
O305        C308   1.280       .  A
O306        H316   0.990       .  S
O307        H320   0.990       .  S
C308       C2145   1.507       .  S
Zr331       O332   2.434       .  S
Zr331       O333   2.435       .  S
Zr331       O334   2.447       .  S
Zr331       O337   2.433       .  S
Zr331       O339   2.378       .  S
Zr331       O340   2.382       .  S
Zr331       O341   2.407       .  S
Zr331       O342   2.401       .  S
O332        H388   0.990       .  S
O332        H396   0.989       .  S
O333        C353   1.283       .  A
O334        C355   1.287       .  A
O335       Zr345   2.432       .  S
O335        C354   1.284       .  A
O336       Zr344   2.426       .  S
O336        C355   1.284       .  A
O337        C354   1.285       .  A
O338       Zr346   2.446       .  S
O338        C353   1.286       .  A
O339       Zr344   2.389       .  S
O339       Zr346   2.365       .  S
O340       Zr345   2.387       .  S
O340       Zr346   2.376       .  S
O340        H375   0.967       .  S
O341       Zr344   2.399       .  S
O341       Zr361   2.409       .  S
O341        H378   0.967       .  S
O342       Zr345   2.388       .  S
O342       Zr361   2.396       .  S
Zr343       O368   2.440       .  S
Zr343       O362   2.450       .  S
Zr343       O370   2.454       .  S
Zr343       O358   2.448       .  S
Zr343       O349   2.403       .  S
Zr343       O350   2.418       .  S
Zr343       O351   2.379       .  S
Zr343       O352   2.384       .  S
Zr344       O363   2.437       .  S
Zr344       O356   2.432       .  S
Zr344       O357   2.425       .  S
Zr344       O350   2.404       .  S
Zr344       O351   2.391       .  S
Zr345       O347   2.431       .  S
Zr345       O369   2.437       .  S
Zr345       O371   2.422       .  S
Zr345       O349   2.389       .  S
Zr345       O352   2.397       .  S
Zr346       O372   2.435       .  S
Zr346       O373   2.436       .  S
Zr346       O348   2.437       .  S
Zr346       O349   2.393       .  S
Zr346       O350   2.411       .  S
O347        H384   0.990       .  S
O348        H379   0.990       .  S
O348        H393   0.990       .  S
O350        H376   0.965       .  S
O351       Zr361   2.376       .  S
O352       Zr361   2.389       .  S
O352        H377   0.964       .  S
C353       C2600   1.488       .  S
C354       C2229   1.500   1_655  S
C355       C2180   1.494       .  S
O356        H392   0.990       .  S
O357        C359   1.283       .  A
O358        C359   1.286       .  A
C359       C2264   1.495       .  S
O360       Zr361   2.442       .  S
O360        H389   0.991       .  S
Zr361       O364   2.437       .  S
Zr361       O365   2.441       .  S
Zr361       O366   2.429       .  S
O362        C367   1.286       .  A
O363        H380   0.990       .  S
O363        H395   0.990       .  S
O364        H381   0.990       .  S
O365        H385   0.989       .  S
O365        H394   0.989       .  S
O366        C367   1.283       .  A
C367       C2572   1.500       .  S
O368        H387   0.988       .  S
O368        H391   0.991       .  S
O369        H383   0.990       .  S
O369        H390   0.990       .  S
O370        C374   1.288       .  A
O371        C374   1.283       .  A
O372        H382   0.990       .  S
O373        H386   0.990       .  S
C374       C2117   1.493       .  S
Zr397       O398   2.437       .  S
Zr397       O399   2.425       .  S
Zr397       O400   2.444       .  S
Zr397       O403   2.426       .  S
Zr397       O405   2.380       .  S
Zr397       O406   2.386       .  S
Zr397       O407   2.402       .  S
Zr397       O408   2.406       .  S
O398        H454   0.990       .  S
O398        H462   0.990       .  S
O399        C419   1.283       .  A
O400        C421   1.286       .  A
O401       Zr411   2.444       .  S
O401        C420   1.286       .  A
O402       Zr410   2.429   1_455  S
O402        C421   1.283       .  A
O403        C420   1.283       .  A
O404       Zr412   2.444       .  S
O404        C419   1.287       .  A
O405       Zr410   2.389   1_455  S
O405       Zr412   2.371       .  S
O406       Zr411   2.392       .  S
O406       Zr412   2.375       .  S
O406        H441   0.973       .  S
O407       Zr410   2.391   1_455  S
O407       Zr427   2.401   1_455  S
O407        H444   0.973       .  S
O408       Zr411   2.387       .  S
O408       Zr427   2.399   1_455  S
Zr409       O434   2.441       .  S
Zr409       O428   2.453       .  S
Zr409       O436   2.458       .  S
Zr409       O424   2.443       .  S
Zr409       O415   2.404   1_655  S
Zr409       O416   2.414   1_655  S
Zr409       O417   2.382       .  S
Zr409       O418   2.391       .  S
Zr410       O429   2.433       .  S
Zr410       O422   2.435       .  S
Zr410       O423   2.427       .  S
Zr410       O416   2.393   1_655  S
Zr410       O417   2.393       .  S
Zr411       O413   2.434       .  S
Zr411       O435   2.438       .  S
Zr411       O437   2.438       .  S
Zr411       O415   2.394       .  S
Zr411       O418   2.397   1_455  S
Zr412       O438   2.432       .  S
Zr412       O439   2.436       .  S
Zr412       O414   2.436       .  S
Zr412       O415   2.392       .  S
Zr412       O416   2.403       .  S
O413        H450   0.990       .  S
O414        H445   0.990       .  S
O414        H459   0.990       .  S
O416        H442   0.968   1_455  S
O417       Zr427   2.376       .  S
O418       Zr427   2.389       .  S
O418        H443   0.966       .  S
C419       C1984   1.496       .  S
C420       C2040   1.490       .  S
C421       C2089   1.482       .  S
O422        H458   0.990   1_655  S
O423        C425   1.284       .  A
O424        C425   1.286       .  A
C425       C2068   1.493       .  S
O426       Zr427   2.436   1_455  S
O426        H455   0.990       .  S
Zr427       O430   2.435       .  S
Zr427       O431   2.434   1_655  S
Zr427       O432   2.433       .  S
O428        C433   1.287       .  A
O429        H446   0.989       .  S
O429        H461   0.990       .  S
O430        H447   0.990       .  S
O431        H451   0.990   1_455  S
O431        H460   0.989   1_455  S
O432        C433   1.283       .  A
C433       C2012   1.499       .  S
O434        H453   0.991       .  S
O434        H457   0.989       .  S
O435        H449   0.990       .  S
O435        H456   0.991       .  S
O436        C440   1.288   1_655  A
O437        C440   1.286       .  A
O438        H448   0.990       .  S
O439        H452   0.990       .  S
C440       C1956   1.502       .  S
Zr463       O464   2.439       .  S
Zr463       O465   2.447       .  S
Zr463       O466   2.436       .  S
Zr463       O469   2.434       .  S
Zr463       O471   2.378       .  S
Zr463       O472   2.384       .  S
Zr463       O473   2.411       .  S
Zr463       O474   2.405       .  S
O464        H520   0.990       .  S
O464        H528   0.990       .  S
O465        C485   1.286       .  A
O466        C487   1.285       .  A
O467       Zr477   2.448       .  S
O467        C486   1.287       .  A
O468       Zr476   2.429       .  S
O468        C487   1.284       .  A
O469        C486   1.284       .  A
O470       Zr478   2.433       .  S
O470        C485   1.283       .  A
O471       Zr476   2.390       .  S
O471       Zr478   2.362       .  S
O472       Zr477   2.392       .  S
O472       Zr478   2.386       .  S
O472        H507   0.965       .  S
O473       Zr476   2.399       .  S
O473       Zr493   2.408       .  S
O473        H510   0.967       .  S
O474       Zr477   2.387       .  S
O474       Zr493   2.399       .  S
Zr475       O500   2.442       .  S
Zr475       O494   2.448       .  S
Zr475       O502   2.452       .  S
Zr475       O490   2.447       .  S
Zr475       O481   2.402       .  S
Zr475       O482   2.412       .  S
Zr475       O483   2.376       .  S
Zr475       O484   2.394       .  S
Zr476       O495   2.435       .  S
Zr476       O488   2.434       .  S
Zr476       O489   2.433       .  S
Zr476       O482   2.395       .  S
Zr476       O483   2.383       .  S
Zr477       O479   2.437       .  S
Zr477       O501   2.438       .  S
Zr477       O503   2.426       .  S
Zr477       O481   2.394       .  S
Zr477       O484   2.401       .  S
Zr478       O504   2.435       .  S
Zr478       O505   2.436       .  S
Zr478       O480   2.436       .  S
Zr478       O481   2.388       .  S
Zr478       O482   2.405       .  S
O479        H516   0.990       .  S
O480        H511   0.990       .  S
O480        H525   0.990       .  S
O482        H508   0.964       .  S
O483       Zr493   2.372       .  S
O484       Zr493   2.391       .  S
O484        H509   0.964       .  S
C485       C1872   1.492       .  S
C486       C1928   1.509       .  S
C487       C2096   1.505       .  S
O488        H524   0.990       .  S
O489        C491   1.284       .  A
O490        C491   1.286       .  A
C491       C1893   1.495       .  S
O492       Zr493   2.442       .  S
O492        H521   0.990       .  S
Zr493       O496   2.438       .  S
Zr493       O497   2.437       .  S
Zr493       O498   2.430       .  S
O494        C499   1.286       .  A
O495        H512   0.990       .  S
O495        H527   0.989       .  S
O496        H513   0.990       .  S
O497        H517   0.990       .  S
O497        H526   0.989       .  S
O498        C499   1.284       .  A
C499       C1844   1.494       .  S
O500        H519   0.990       .  S
O500        H523   0.990       .  S
O501        H515   0.990       .  S
O501        H522   0.990       .  S
O502        C506   1.287       .  A
O503        C506   1.283       .  A
O504        H514   0.990       .  S
O505        H518   0.990       .  S
C506       C2397   1.493       .  S
Zr529       O530   2.436       .  S
Zr529       O531   2.445       .  S
Zr529       O532   2.433       .  S
Zr529       O535   2.434       .  S
Zr529       O537   2.376       .  S
Zr529       O538   2.381       .  S
Zr529       O539   2.407       .  S
Zr529       O540   2.402       .  S
O530        H586   0.990       .  S
O530        H594   0.990       .  S
O531        C551   1.286       .  A
O532        C553   1.284       .  A
O533       Zr543   2.430       .  S
O533        C552   1.284       .  A
O534       Zr542   2.452       .  S
O534        C553   1.288       .  A
O535        C552   1.286       .  A
O536       Zr544   2.446       .  S
O536        C551   1.286       .  A
O537       Zr542   2.384       .  S
O537       Zr544   2.367       .  S
O538       Zr543   2.387       .  S
O538       Zr544   2.379       .  S
O538        H573   0.962       .  S
O539       Zr542   2.389       .  S
O539       Zr559   2.410       .  S
O539        H576   0.973       .  S
O540       Zr543   2.383       .  S
O540       Zr559   2.400       .  S
Zr541       O566   2.436       .  S
Zr541       O560   2.459       .  S
Zr541       O568   2.463       .  S
Zr541       O556   2.446       .  S
Zr541       O547   2.404       .  S
Zr541       O548   2.423       .  S
Zr541       O549   2.379       .  S
Zr541       O550   2.381       .  S
Zr542       O561   2.435       .  S
Zr542       O554   2.433       .  S
Zr542       O555   2.429       .  S
Zr542       O548   2.403       .  S
Zr542       O549   2.394       .  S
Zr543       O545   2.435       .  S
Zr543       O567   2.435       .  S
Zr543       O569   2.408       .  S
Zr543       O547   2.386       .  S
Zr543       O550   2.394       .  S
Zr544       O570   2.436       .  S
Zr544       O571   2.435       .  S
Zr544       O546   2.435       .  S
Zr544       O547   2.397       .  S
Zr544       O548   2.405       .  S
O545        H582   0.990       .  S
O546        H577   0.990       .  S
O546        H591   0.990       .  S
O548        H574   0.967       .  S
O549       Zr559   2.370       .  S
O550       Zr559   2.384       .  S
O550        H575   0.969       .  S
C551       C1921   1.492       .  S
C552       C1781   1.485       .  S
C553       C1809   1.518       .  S
O554        H590   0.990       .  S
O555        C557   1.284       .  A
O556        C557   1.286       .  A
C557       C1753   1.488       .  S
O558       Zr559   2.442       .  S
O558        H587   0.990       .  S
Zr559       O562   2.439       .  S
Zr559       O563   2.438       .  S
Zr559       O564   2.446   1_565  S
O560        C565   1.288   1_565  A
O561        H578   0.990       .  S
O561        H593   0.990       .  S
O562        H579   0.990   1_565  S
O563        H583   0.989   1_565  S
O563        H592   0.990   1_565  S
O564        C565   1.287       .  A
C565       C1900   1.525       .  S
O566        H585   0.990       .  S
O566        H589   0.989       .  S
O567        H581   0.990       .  S
O567        H588   0.989       .  S
O568        C572   1.290       .  A
O569        C572   1.281       .  A
O570        H580   0.990       .  S
O571        H584   0.990       .  S
C572       C2152   1.498       .  S
Zr595       O596   2.439       .  S
Zr595       O597   2.417       .  S
Zr595       O598   2.438       .  S
Zr595       O601   2.439       .  S
Zr595       O603   2.383       .  S
Zr595       O604   2.381       .  S
Zr595       O605   2.402       .  S
Zr595       O606   2.397       .  S
O596        H652   0.990       .  S
O596        H660   0.990       .  S
O597        C617   1.282       .  A
O598        C619   1.285       .  A
O599       Zr609   2.432       .  S
O599        C618   1.285       .  A
O600       Zr608   2.439       .  S
O600        C619   1.285       .  A
O601        C618   1.287       .  A
O602       Zr610   2.448       .  S
O602        C617   1.288       .  A
O603       Zr608   2.389       .  S
O603       Zr610   2.367       .  S
O604       Zr609   2.383       .  S
O604       Zr610   2.378       .  S
O604        H639   0.964       .  S
O605       Zr608   2.401       .  S
O605       Zr625   2.401       .  S
O605        H642   0.969       .  S
O606       Zr609   2.387       .  S
O606       Zr625   2.387       .  S
Zr607       O632   2.441       .  S
Zr607       O626   2.449       .  S
Zr607       O634   2.466       .  S
Zr607       O622   2.446       .  S
Zr607       O613   2.398       .  S
Zr607       O614   2.418       .  S
Zr607       O615   2.381       .  S
Zr607       O616   2.385       .  S
Zr608       O627   2.436       .  S
Zr608       O620   2.437       .  S
Zr608       O621   2.438       .  S
Zr608       O614   2.399       .  S
Zr608       O615   2.393       .  S
Zr609       O611   2.435       .  S
Zr609       O633   2.440       .  S
Zr609       O635   2.417       .  S
Zr609       O613   2.390       .  S
Zr609       O616   2.396       .  S
Zr610       O636   2.434       .  S
Zr610       O637   2.437       .  S
Zr610       O612   2.436       .  S
Zr610       O613   2.390       .  S
Zr610       O614   2.409       .  S
O611        H648   0.990       .  S
O612        H643   0.990       .  S
O612        H657   0.990       .  S
O614        H640   0.964       .  S
O615       Zr625   2.378       .  S
O616       Zr625   2.387       .  S
O616        H641   0.963       .  S
C617       C1697   1.493       .  S
C618       C1977   1.492       .  S
C619       C1816   1.483       .  S
O620        H656   0.990       .  S
O621        C623   1.286       .  A
O622        C623   1.285       .  A
C623       C2005   1.497       .  S
O624       Zr625   2.436       .  S
O624        H653   0.990       .  S
Zr625       O628   2.433       .  S
Zr625       O629   2.439       .  S
Zr625       O630   2.415       .  S
O626        C631   1.286       .  A
O627        H644   0.990       .  S
O627        H659   0.990       .  S
O628        H645   0.990       .  S
O629        H649   0.990       .  S
O629        H658   0.989       .  S
O630        C631   1.280       .  A
C631       C1725   1.509       .  S
O632        H651   0.990       .  S
O632        H655   0.991       .  S
O633        H647   0.990       .  S
O633        H654   0.990       .  S
O634        C638   1.291       .  A
O635        C638   1.282       .  A
O636        H646   0.990       .  S
O637        H650   0.990       .  S
C638       C1676   1.495       .  S
Zr661       O662   2.439       .  S
Zr661       O663   2.431       .  S
Zr661       O664   2.428       .  S
Zr661       O667   2.425       .  S
Zr661       O669   2.378   1_565  S
Zr661       O670   2.379       .  S
Zr661       O671   2.408   1_565  S
Zr661       O672   2.399   1_565  S
O662        H718   0.990       .  S
O662        H726   0.990       .  S
O663        C683   1.284       .  A
O664        C685   1.283   1_565  A
O665       Zr675   2.434   1_565  S
O665        C684   1.285       .  A
O666       Zr674   2.430       .  S
O666        C685   1.284       .  A
O667        C684   1.284       .  A
O668       Zr676   2.446   1_565  S
O668        C683   1.287       .  A
O669       Zr674   2.388       .  S
O669       Zr676   2.369       .  S
O670       Zr675   2.383   1_565  S
O670       Zr676   2.374   1_565  S
O670        H705   0.965       .  S
O671       Zr674   2.395       .  S
O671       Zr691   2.406       .  S
O671        H708   0.969       .  S
O672       Zr675   2.386       .  S
O672       Zr691   2.392       .  S
Zr673       O698   2.437       .  S
Zr673       O692   2.438       .  S
Zr673       O700   2.449       .  S
Zr673       O688   2.447       .  S
Zr673       O679   2.402       .  S
Zr673       O680   2.412       .  S
Zr673       O681   2.383       .  S
Zr673       O682   2.386       .  S
Zr674       O693   2.436       .  S
Zr674       O686   2.434       .  S
Zr674       O687   2.430       .  S
Zr674       O680   2.395       .  S
Zr674       O681   2.392       .  S
Zr675       O677   2.433       .  S
Zr675       O699   2.440   1_545  S
Zr675       O701   2.418       .  S
Zr675       O679   2.390       .  S
Zr675       O682   2.393       .  S
Zr676       O702   2.431   1_545  S
Zr676       O703   2.435       .  S
Zr676       O678   2.437       .  S
Zr676       O679   2.392       .  S
Zr676       O680   2.404       .  S
O677        H714   0.990   1_545  S
O678        H709   0.990   1_545  S
O678        H723   0.990       .  S
O680        H706   0.968       .  S
O681       Zr691   2.377       .  S
O682       Zr691   2.381       .  S
O682        H707   0.956       .  S
C683       C2033   1.500       .  S
C684       C1704   1.487       .  S
C685       C1648   1.476       .  S
O686        H722   0.990       .  S
O687        C689   1.283       .  A
O688        C689   1.285       .  A
C689       C1732   1.483       .  S
O690       Zr691   2.436       .  S
O690        H719   0.990       .  S
Zr691       O694   2.434       .  S
Zr691       O695   2.438       .  S
Zr691       O696   2.436       .  S
O692        C697   1.285       .  A
O693        H710   0.990       .  S
O693        H725   0.990       .  S
O694        H711   0.990       .  S
O695        H715   0.990       .  S
O695        H724   0.989       .  S
O696        C697   1.286       .  A
C697       C2061   1.503       .  S
O698        H717   0.990       .  S
O698        H721   0.990       .  S
O699        H713   0.990       .  S
O699        H720   0.990       .  S
O700        C704   1.288       .  A
O701        C704   1.283       .  A
O702        H712   0.990       .  S
O703        H716   0.990       .  S
C704       C1620   1.491       .  S
Zr727       O728   2.435       .  S
Zr727       O729   2.423       .  S
Zr727       O730   2.431       .  S
Zr727       O733   2.434       .  S
Zr727       O735   2.378       .  S
Zr727       O736   2.381       .  S
Zr727       O737   2.400       .  S
Zr727       O738   2.403       .  S
O728        H784   0.990       .  S
O728        H792   0.990       .  S
O729        C749   1.282       .  A
O730        C751   1.284       .  A
O731       Zr741   2.449       .  S
O731        C750   1.288       .  A
O732       Zr740   2.436       .  S
O732        C751   1.285       .  A
O733        C750   1.286       .  A
O734       Zr742   2.439       .  S
O734        C749   1.286       .  A
O735       Zr740   2.390       .  S
O735       Zr742   2.371       .  S
O736       Zr741   2.385       .  S
O736       Zr742   2.372       .  S
O736        H771   0.964       .  S
O737       Zr740   2.394       .  S
O737       Zr757   2.403       .  S
O737        H774   0.969       .  S
O738       Zr741   2.384       .  S
O738       Zr757   2.400       .  S
Zr739       O764   2.435       .  S
Zr739       O758   2.442       .  S
Zr739       O766   2.443       .  S
Zr739       O754   2.437       .  S
Zr739       O745   2.401       .  S
Zr739       O746   2.407       .  S
Zr739       O747   2.375       .  S
Zr739       O748   2.386       .  S
Zr740       O759   2.436       .  S
Zr740       O752   2.433   1_565  S
Zr740       O753   2.437   1_565  S
Zr740       O746   2.393       .  S
Zr740       O747   2.382       .  S
Zr741       O743   2.434       .  S
Zr741       O765   2.433       .  S
Zr741       O767   2.423       .  S
Zr741       O745   2.390       .  S
Zr741       O748   2.388       .  S
Zr742       O768   2.435       .  S
Zr742       O769   2.436       .  S
Zr742       O744   2.434       .  S
Zr742       O745   2.393       .  S
Zr742       O746   2.401       .  S
O743        H780   0.990       .  S
O744        H775   0.990       .  S
O744        H789   0.989       .  S
O746        H772   0.963       .  S
O747       Zr757   2.373       .  S
O748       Zr757   2.381       .  S
O748        H773   0.954       .  S
C749       C1788   1.495       .  S
C750       C1865   1.500       .  S
C751       C1641   1.504       .  S
O752        H788   0.990       .  S
O753        C755   1.286       .  A
O754        C755   1.286   1_565  A
C755       C1837   1.488       .  S
O756       Zr757   2.441       .  S
O756        H785   0.990       .  S
Zr757       O760   2.434       .  S
Zr757       O761   2.443       .  S
Zr757       O762   2.432       .  S
O758        C763   1.287       .  A
O759        H776   0.990       .  S
O759        H791   0.990       .  S
O760        H777   0.990       .  S
O761        H781   0.991       .  S
O761        H790   0.989       .  S
O762        C763   1.284       .  A
C763       C1760   1.496       .  S
O764        H783   0.990       .  S
O764        H787   0.988       .  S
O765        H779   0.990       .  S
O765        H786   0.989       .  S
O766        C770   1.287       .  A
O767        C770   1.284       .  A
O768        H778   0.990       .  S
O769        H782   0.990       .  S
C770       C2285   1.504       .  S
Zr793       O794   2.438       .  S
Zr793       O795   2.441       .  S
Zr793       O796   2.439       .  S
Zr793       O799   2.435       .  S
Zr793       O801   2.377       .  S
Zr793       O802   2.381       .  S
Zr793       O803   2.409       .  S
Zr793       O804   2.407       .  S
O794        H850   0.990       .  S
O794        H858   0.990       .  S
O795        C815   1.286       .  A
O796        C817   1.286       .  A
O797       Zr807   2.437       .  S
O797        C816   1.286       .  A
O798       Zr806   2.428       .  S
O798        C817   1.283       .  A
O799        C816   1.286       .  A
O800       Zr808   2.445       .  S
O800        C815   1.287       .  A
O801       Zr806   2.388       .  S
O801       Zr808   2.364       .  S
O802       Zr807   2.389       .  S
O802       Zr808   2.374       .  S
O802        H837   0.964       .  S
O803       Zr806   2.396       .  S
O803       Zr823   2.404       .  S
O803        H840   0.962       .  S
O804       Zr807   2.391       .  S
O804       Zr823   2.400       .  S
Zr805       O830   2.443       .  S
Zr805       O824   2.455       .  S
Zr805       O832   2.450       .  S
Zr805       O820   2.431       .  S
Zr805       O811   2.398       .  S
Zr805       O812   2.417       .  S
Zr805       O813   2.375       .  S
Zr805       O814   2.387       .  S
Zr806       O825   2.437       .  S
Zr806       O818   2.435       .  S
Zr806       O819   2.426       .  S
Zr806       O812   2.398       .  S
Zr806       O813   2.387       .  S
Zr807       O809   2.434       .  S
Zr807       O831   2.440       .  S
Zr807       O833   2.425       .  S
Zr807       O811   2.396       .  S
Zr807       O814   2.401       .  S
Zr808       O834   2.435       .  S
Zr808       O835   2.434       .  S
Zr808       O810   2.437       .  S
Zr808       O811   2.395       .  S
Zr808       O812   2.410       .  S
O809        H846   0.989       .  S
O810        H841   0.990       .  S
O810        H855   0.990       .  S
O812        H838   0.966       .  S
O813       Zr823   2.371       .  S
O814       Zr823   2.392       .  S
O814        H839   0.964       .  S
C815       C1501   1.499       .  S
C816       C1557   1.493       .  S
C817       C1592   1.479       .  S
O818        H854   0.990       .  S
O819        C821   1.283       .  A
O820        C821   1.283       .  A
C821       C1536   1.486       .  S
O822       Zr823   2.441       .  S
O822        H851   0.990       .  S
Zr823       O826   2.439       .  S
Zr823       O827   2.436       .  S
Zr823       O828   2.431       .  S
O824        C829   1.287       .  A
O825        H842   0.990       .  S
O825        H857   0.990       .  S
O826        H843   0.990       .  S
O827        H847   0.990   1_655  S
O827        H856   0.989       .  S
O828        C829   1.284       .  A
C829       C1473   1.503   1_655  S
O830        H849   0.990       .  S
O830        H853   0.991       .  S
O831        H845   0.990       .  S
O831        H852   0.990       .  S
O832        C836   1.286       .  A
O833        C836   1.282       .  A
O834        H844   0.990       .  S
O835        H848   0.990       .  S
C836       C2124   1.486       .  S
Zr859       O860   2.438       .  S
Zr859       O861   2.426       .  S
Zr859       O862   2.424       .  S
Zr859       O865   2.434       .  S
Zr859       O867   2.380       .  S
Zr859       O868   2.382       .  S
Zr859       O869   2.399       .  S
Zr859       O870   2.398       .  S
O860        H916   0.989       .  S
O860        H924   0.990       .  S
O861        C881   1.284       .  A
O862        C883   1.283       .  A
O863       Zr873   2.449       .  S
O863        C882   1.288       .  A
O864       Zr872   2.440       .  S
O864        C883   1.285       .  A
O865        C882   1.285       .  A
O866       Zr874   2.446       .  S
O866        C881   1.287       .  A
O867       Zr872   2.384       .  S
O867       Zr874   2.366       .  S
O868       Zr873   2.383       .  S
O868       Zr874   2.378       .  S
O868        H903   0.966       .  S
O869       Zr872   2.396       .  S
O869       Zr889   2.401       .  S
O869        H906   0.965       .  S
O870       Zr873   2.384       .  S
O870       Zr889   2.395       .  S
Zr871       O896   2.434       .  S
Zr871       O890   2.447       .  S
Zr871       O898   2.445       .  S
Zr871       O886   2.449       .  S
Zr871       O877   2.402       .  S
Zr871       O878   2.410       .  S
Zr871       O879   2.376       .  S
Zr871       O880   2.383       .  S
Zr872       O891   2.435       .  S
Zr872       O884   2.436       .  S
Zr872       O885   2.427       .  S
Zr872       O878   2.398       .  S
Zr872       O879   2.392       .  S
Zr873       O875   2.433       .  S
Zr873       O897   2.433       .  S
Zr873       O899   2.423       .  S
Zr873       O877   2.388       .  S
Zr873       O880   2.393       .  S
Zr874       O900   2.434       .  S
Zr874       O901   2.437       .  S
Zr874       O876   2.436       .  S
Zr874       O877   2.392       .  S
Zr874       O878   2.404       .  S
O875        H912   0.990       .  S
O876        H907   0.990       .  S
O876        H921   0.990       .  S
O878        H904   0.968       .  S
O879       Zr889   2.374       .  S
O880       Zr889   2.384       .  S
O880        H905   0.973       .  S
C881       C1368   1.505       .  S
C882       C1424   1.494       .  S
C883       C1585   1.511       .  S
O884        H920   0.990       .  S
O885        C887   1.284       .  A
O886        C887   1.287       .  A
C887       C1445   1.497       .  S
O888       Zr889   2.439       .  S
O888        H917   0.990       .  S
Zr889       O892   2.435       .  S
Zr889       O893   2.441       .  S
Zr889       O894   2.423       .  S
O890        C895   1.287       .  A
O891        H908   0.990       .  S
O891        H923   0.990       .  S
O892        H909   0.990       .  S
O893        H913   0.990       .  S
O893        H922   0.990       .  S
O894        C895   1.282       .  A
C895       C1396   1.492       .  S
O896        H915   0.988       .  S
O896        H919   0.991       .  S
O897        H911   0.990       .  S
O897        H918   0.989       .  S
O898        C902   1.287       .  A
O899        C902   1.283       .  A
O900        H910   0.990       .  S
O901        H914   0.990       .  S
C902       C1669   1.515       .  S
Zr925       O926   2.440       .  S
Zr925       O927   2.430       .  S
Zr925       O928   2.419       .  S
Zr925       O931   2.427       .  S
Zr925       O933   2.377       .  S
Zr925       O934   2.376       .  S
Zr925       O935   2.406       .  S
Zr925       O936   2.400       .  S
O926        H982   0.991       .  S
O926        H990   0.990       .  S
O927        C947   1.283       .  A
O928        C949   1.281       .  A
O929       Zr939   2.447       .  S
O929        C948   1.288       .  A
O930       Zr938   2.430       .  S
O930        C949   1.283       .  A
O931        C948   1.284       .  A
O932       Zr940   2.430       .  S
O932        C947   1.284       .  A
O933       Zr938   2.387       .  S
O933       Zr940   2.368       .  S
O934       Zr939   2.377       .  S
O934       Zr940   2.379       .  S
O934        H969   0.961       .  S
O935       Zr938   2.395       .  S
O935       Zr955   2.402       .  S
O935        H972   0.964       .  S
O936       Zr939   2.387       .  S
O936       Zr955   2.398       .  S
Zr937       O962   2.436       .  S
Zr937       O956   2.441       .  S
Zr937       O964   2.454       .  S
Zr937       O952   2.440       .  S
Zr937       O943   2.401       .  S
Zr937       O944   2.407       .  S
Zr937       O945   2.380       .  S
Zr937       O946   2.383       .  S
Zr938       O957   2.436       .  S
Zr938       O950   2.437       .  S
Zr938       O951   2.431       .  S
Zr938       O944   2.393       .  S
Zr938       O945   2.387       .  S
Zr939       O941   2.433       .  S
Zr939       O963   2.438       .  S
Zr939       O965   2.416       .  S
Zr939       O943   2.398       .  S
Zr939       O946   2.394       .  S
Zr940       O966   2.433       .  S
Zr940       O967   2.437       .  S
Zr940       O942   2.438       .  S
Zr940       O943   2.399       .  S
Zr940       O944   2.395       .  S
O941        H978   0.990       .  S
O942        H973   0.990       .  S
O942        H987   0.990       .  S
O944        H970   0.968       .  S
O945       Zr955   2.372       .  S
O946       Zr955   2.380       .  S
O946        H971   0.965       .  S
C947       C1305   1.491       .  S
C948       C1508   1.497       .  S
C949       C1333   1.470       .  S
O950        H986   0.990       .  S
O951        C953   1.285       .  A
O952        C953   1.286       .  A
C953       C1480   1.490       .  S
O954       Zr955   2.440       .  S
O954        H983   0.990       .  S
Zr955       O958   2.437       .  S
Zr955       O959   2.437       .  S
Zr955       O960   2.437       .  S
O956        C961   1.286       .  A
O957        H974   0.990       .  S
O957        H989   0.990       .  S
O958        H975   0.990       .  S
O959        H979   0.990       .  S
O959        H988   0.989       .  S
O960        C961   1.286       .  A
C961       C1277   1.497       .  S
O962        H981   0.989       .  S
O962        H985   0.990       .  S
O963        H977   0.990       .  S
O963        H984   0.990       .  S
O964        C968   1.288       .  A
O965        C968   1.281       .  A
O966        H976   0.990       .  S
O967        H980   0.990       .  S
C968       C2208   1.515       .  S
Zr991       O992   2.436       .  S
Zr991       O993   2.423       .  S
Zr991       O994   2.431       .  S
Zr991       O997   2.436       .  S
Zr991       O999   2.380       .  S
Zr991      O1000   2.382       .  S
Zr991      O1001   2.405       .  S
Zr991      O1002   2.403       .  S
O992       H1048   0.990       .  S
O992       H1056   0.990       .  S
O993       C1013   1.282       .  A
O994       C1015   1.284       .  A
O995      Zr1005   2.444       .  S
O995       C1014   1.286       .  A
O996      Zr1004   2.436       .  S
O996       C1015   1.286       .  A
O997       C1014   1.286       .  A
O998      Zr1006   2.437       .  S
O998       C1013   1.285       .  A
O999      Zr1004   2.387       .  S
O999      Zr1006   2.373       .  S
O1000     Zr1005   2.388       .  S
O1000     Zr1006   2.372       .  S
O1000      H1035   0.966       .  S
O1001     Zr1004   2.396       .  S
O1001     Zr1021   2.401   1_545  S
O1001      H1038   0.977       .  S
O1002     Zr1005   2.389       .  S
O1002     Zr1021   2.401   1_545  S
Zr1003     O1028   2.443       .  S
Zr1003     O1022   2.451       .  S
Zr1003     O1030   2.445       .  S
Zr1003     O1018   2.444       .  S
Zr1003     O1009   2.401   1_565  S
Zr1003     O1010   2.406   1_565  S
Zr1003     O1011   2.377       .  S
Zr1003     O1012   2.389   1_565  S
Zr1004     O1023   2.434   1_545  S
Zr1004     O1016   2.431       .  S
Zr1004     O1017   2.438   1_545  S
Zr1004     O1010   2.389       .  S
Zr1004     O1011   2.389   1_545  S
Zr1005     O1007   2.434       .  S
Zr1005     O1029   2.436       .  S
Zr1005     O1031   2.428       .  S
Zr1005     O1009   2.385       .  S
Zr1005     O1012   2.391       .  S
Zr1006     O1032   2.436       .  S
Zr1006     O1033   2.435       .  S
Zr1006     O1008   2.434       .  S
Zr1006     O1009   2.386       .  S
Zr1006     O1010   2.402       .  S
O1007      H1044   0.990       .  S
O1008      H1039   0.991       .  S
O1008      H1053   0.989       .  S
O1010      H1036   0.968   1_545  S
O1011     Zr1021   2.375       .  S
O1012     Zr1021   2.382   1_545  S
O1012      H1037   0.968   1_545  S
C1013      C1417   1.487       .  S
C1014      C1256   1.495       .  S
C1015      C1340   1.504       .  S
O1016      H1052   0.990       .  S
O1017      C1019   1.285       .  A
O1018      C1019   1.286       .  A
C1019      C1221   1.515       .  S
O1020     Zr1021   2.438   1_545  S
O1020      H1049   0.990   1_545  S
Zr1021     O1024   2.437       .  S
Zr1021     O1025   2.439   1_565  S
Zr1021     O1026   2.429       .  S
O1022      C1027   1.288       .  A
O1023      H1040   0.989       .  S
O1023      H1055   0.990       .  S
O1024      H1041   0.990       .  S
O1025      H1045   0.990   1_545  S
O1025      H1054   0.989       .  S
O1026      C1027   1.282       .  A
C1027      C1452   1.488       .  S
O1028      H1047   0.990       .  S
O1028      H1051   0.990       .  S
O1029      H1043   0.989       .  S
O1029      H1050   0.990       .  S
O1030      C1034   1.287   1_565  A
O1031      C1034   1.284       .  A
O1032      H1042   0.990       .  S
O1033      H1046   0.990       .  S
C1034      C1613   1.512       .  S
Zr1057     O1058   2.434       .  S
Zr1057     O1059   2.439       .  S
Zr1057     O1060   2.432       .  S
Zr1057     O1063   2.425       .  S
Zr1057     O1065   2.378       .  S
Zr1057     O1066   2.383       .  S
Zr1057     O1067   2.409   1_655  S
Zr1057     O1068   2.405       .  S
O1058      H1114   0.990       .  S
O1058      H1122   0.989       .  S
O1059      C1079   1.285       .  A
O1060      C1081   1.285       .  A
O1061     Zr1071   2.427       .  S
O1061      C1080   1.282       .  A
O1062     Zr1070   2.437       .  S
O1062      C1081   1.286   1_455  A
O1063      C1080   1.283       .  A
O1064     Zr1072   2.442       .  S
O1064      C1079   1.286       .  A
O1065     Zr1070   2.388   1_655  S
O1065     Zr1072   2.366       .  S
O1066     Zr1071   2.390       .  S
O1066     Zr1072   2.375       .  S
O1066      H1101   0.972       .  S
O1067     Zr1070   2.400       .  S
O1067     Zr1087   2.407       .  S
O1067      H1104   0.965       .  S
O1068     Zr1071   2.384       .  S
O1068     Zr1087   2.398   1_655  S
Zr1069     O1094   2.440       .  S
Zr1069     O1088   2.439       .  S
Zr1069     O1096   2.457       .  S
Zr1069     O1084   2.443       .  S
Zr1069     O1075   2.399       .  S
Zr1069     O1076   2.413       .  S
Zr1069     O1077   2.380       .  S
Zr1069     O1078   2.389       .  S
Zr1070     O1089   2.434       .  S
Zr1070     O1082   2.428       .  S
Zr1070     O1083   2.441       .  S
Zr1070     O1076   2.399       .  S
Zr1070     O1077   2.392       .  S
Zr1071     O1073   2.436   1_655  S
Zr1071     O1095   2.439       .  S
Zr1071     O1097   2.419   1_655  S
Zr1071     O1075   2.393   1_655  S
Zr1071     O1078   2.392   1_655  S
Zr1072     O1098   2.435       .  S
Zr1072     O1099   2.434   1_655  S
Zr1072     O1074   2.433       .  S
Zr1072     O1075   2.389   1_655  S
Zr1072     O1076   2.411   1_655  S
O1073      H1110   0.990   1_455  S
O1074      H1105   0.990       .  S
O1074      H1119   0.990       .  S
O1076      H1102   0.968       .  S
O1077     Zr1087   2.376       .  S
O1078     Zr1087   2.391       .  S
O1078      H1103   0.966       .  S
C1079      C1249   1.500       .  S
C1080      C1361   1.476       .  S
C1081      C1193   1.491       .  S
O1082      H1118   0.989       .  S
O1083      C1085   1.286       .  A
O1084      C1085   1.286       .  A
C1085      C1389   1.503       .  S
O1086     Zr1087   2.442       .  S
O1086      H1115   0.990       .  S
Zr1087     O1090   2.437       .  S
Zr1087     O1091   2.444       .  S
Zr1087     O1092   2.424       .  S
O1088      C1093   1.283       .  A
O1089      H1106   0.990       .  S
O1089      H1121   0.990       .  S
O1090      H1107   0.990       .  S
O1091      H1111   0.990       .  S
O1091      H1120   0.990       .  S
O1092      C1093   1.282       .  A
C1093      C1228   1.489       .  S
O1094      H1113   0.991       .  S
O1094      H1117   0.989       .  S
O1095      H1109   0.990       .  S
O1095      H1116   0.989       .  S
O1096      C1100   1.288       .  A
O1097      C1100   1.281       .  A
O1098      H1108   0.990       .  S
O1099      H1112   0.990       .  S
C1100      C1949   1.493       .  S
Zr1123     O1124   2.436       .  S
Zr1123     O1125   2.438       .  S
Zr1123     O1126   2.437       .  S
Zr1123     O1129   2.431       .  S
Zr1123     O1131   2.377       .  S
Zr1123     O1132   2.379       .  S
Zr1123     O1133   2.407       .  S
Zr1123     O1134   2.402       .  S
O1124      H1180   0.990       .  S
O1124      H1188   0.990       .  S
O1125      C1145   1.285       .  A
O1126      C1147   1.285       .  A
O1127     Zr1137   2.432       .  S
O1127      C1146   1.285       .  A
O1128     Zr1136   2.429       .  S
O1128      C1147   1.284       .  A
O1129      C1146   1.285       .  A
O1130     Zr1138   2.437       .  S
O1130      C1145   1.285       .  A
O1131     Zr1136   2.391       .  S
O1131     Zr1138   2.369       .  S
O1132     Zr1137   2.386       .  S
O1132     Zr1138   2.374       .  S
O1132      H1167   0.966       .  S
O1133     Zr1136   2.395       .  S
O1133     Zr1153   2.405       .  S
O1133      H1170   0.973       .  S
O1134     Zr1137   2.387       .  S
O1134     Zr1153   2.393       .  S
Zr1135     O1160   2.441       .  S
Zr1135     O1154   2.446       .  S
Zr1135     O1162   2.452       .  S
Zr1135     O1150   2.432       .  S
Zr1135     O1141   2.397       .  S
Zr1135     O1142   2.413       .  S
Zr1135     O1143   2.380       .  S
Zr1135     O1144   2.386       .  S
Zr1136     O1155   2.436       .  S
Zr1136     O1148   2.434       .  S
Zr1136     O1149   2.432       .  S
Zr1136     O1142   2.399       .  S
Zr1136     O1143   2.386       .  S
Zr1137     O1139   2.435       .  S
Zr1137     O1161   2.439       .  S
Zr1137     O1163   2.413       .  S
Zr1137     O1141   2.398       .  S
Zr1137     O1144   2.398       .  S
Zr1138     O1164   2.436       .  S
Zr1138     O1165   2.437       .  S
Zr1138     O1140   2.439       .  S
Zr1138     O1141   2.393       .  S
Zr1138     O1142   2.405       .  S
O1139      H1176   0.990       .  S
O1140      H1171   0.990       .  S
O1140      H1185   0.990       .  S
O1142      H1168   0.967       .  S
O1143     Zr1153   2.377       .  S
O1144     Zr1153   2.387       .  S
O1144      H1169   0.966       .  S
C1145      C1564   1.488       .  S
C1146      C1312   1.489       .  S
C1147      C1200   1.486       .  S
O1148      H1184   0.990       .  S
O1149      C1151   1.285       .  A
O1150      C1151   1.284       .  A
C1151      C1284   1.491   1_655  S
O1152     Zr1153   2.442       .  S
O1152      H1181   0.990       .  S
Zr1153     O1156   2.437       .  S
Zr1153     O1157   2.439       .  S
Zr1153     O1158   2.426       .  S
O1154      C1159   1.285       .  A
O1155      H1172   0.990       .  S
O1155      H1187   0.990       .  S
O1156      H1173   0.990       .  S
O1157      H1177   0.989       .  S
O1157      H1186   0.989       .  S
O1158      C1159   1.284       .  A
C1159      C1529   1.497       .  S
O1160      H1179   0.990       .  S
O1160      H1183   0.990       .  S
O1161      H1175   0.990       .  S
O1161      H1182   0.990       .  S
O1162      C1166   1.286       .  A
O1163      C1166   1.280       .  A
O1164      H1174   0.990       .  S
O1165      H1178   0.990       .  S
C1166      C2544   1.482       .  S
C1189      C1190   1.409       .  A
C1189      C1194   1.411       .  A
C1189      C1207   1.451       .  S
C1190      C1195   1.496       .  S
C1190      C1191   1.409       .  A
C1191      C1192   1.411       .  A
C1191      C1196   1.451       .  S
C1192      C1193   1.418       .  A
C1192      C1208   1.451       .  S
C1193      C1194   1.417       .  A
C1194      C1197   1.450       .  S
C1195      C1198   1.411       .  A
C1195      C1202   1.411       .  A
C1196      N1213   1.157       .  T
C1197      N1215   1.157       .  T
C1198      C1199   1.410       .  A
C1198      C1203   1.451   1_655  S
C1199      C1200   1.416       .  A
C1199      C1205   1.451       .  S
C1200      C1201   1.415       .  A
C1201      C1202   1.410       .  A
C1201      C1204   1.450       .  S
C1202      C1206   1.452       .  S
C1203      N1210   1.157       .  T
C1204      N1211   1.157       .  T
C1205      N1209   1.157       .  T
C1206      N1212   1.157       .  T
C1207      N1216   1.157       .  T
C1208      N1214   1.157   1_655  T
C1217      C1218   1.405       .  A
C1217      C1222   1.414       .  A
C1217      C1235   1.451       .  S
C1218      C1223   1.497       .  S
C1218      C1219   1.405       .  A
C1219      C1220   1.412       .  A
C1219      C1224   1.453       .  S
C1220      C1221   1.428       .  A
C1220      C1236   1.450       .  S
C1221      C1222   1.429       .  A
C1222      C1225   1.451       .  S
C1223      C1226   1.410       .  A
C1223      C1230   1.409       .  A
C1224      N1241   1.157       .  T
C1225      N1243   1.158       .  T
C1226      C1227   1.413       .  A
C1226      C1231   1.450       .  S
C1227      C1228   1.416       .  A
C1227      C1233   1.451       .  S
C1228      C1229   1.416       .  A
C1229      C1230   1.409       .  A
C1229      C1232   1.451       .  S
C1230      C1234   1.451       .  S
C1231      N1238   1.157       .  T
C1232      N1239   1.157       .  T
C1233      N1237   1.157       .  T
C1234      N1240   1.157       .  T
C1235      N1244   1.157       .  T
C1236      N1242   1.157       .  T
C1245      C1246   1.410       .  A
C1245      C1250   1.413       .  A
C1245      C1263   1.451       .  S
C1246      C1251   1.503       .  S
C1246      C1247   1.411       .  A
C1247      C1248   1.415       .  A
C1247      C1252   1.451       .  S
C1248      C1249   1.419       .  A
C1248      C1264   1.449       .  S
C1249      C1250   1.418       .  A
C1250      C1253   1.450       .  S
C1251      C1254   1.410       .  A
C1251      C1258   1.412       .  A
C1252      N1269   1.157       .  T
C1253      N1271   1.157       .  T
C1254      C1255   1.412       .  A
C1254      C1259   1.451       .  S
C1255      C1256   1.417       .  A
C1255      C1261   1.450       .  S
C1256      C1257   1.417       .  A
C1257      C1258   1.415       .  A
C1257      C1260   1.450       .  S
C1258      C1262   1.450       .  S
C1259      N1266   1.157       .  T
C1260      N1267   1.157       .  T
C1261      N1265   1.157       .  T
C1262      N1268   1.157       .  T
C1263      N1272   1.157       .  T
C1264      N1270   1.157       .  T
C1273      C1274   1.410       .  A
C1273      C1278   1.412       .  A
C1273      C1291   1.451       .  S
C1274      C1279   1.500       .  S
C1274      C1275   1.410       .  A
C1275      C1276   1.414       .  A
C1275      C1280   1.451       .  S
C1276      C1277   1.419       .  A
C1276      C1292   1.449       .  S
C1277      C1278   1.417       .  A
C1278      C1281   1.450       .  S
C1279      C1282   1.411       .  A
C1279      C1286   1.411       .  A
C1280      N1297   1.157       .  T
C1281      N1299   1.157       .  T
C1282      C1283   1.412       .  A
C1282      C1287   1.450       .  S
C1283      C1284   1.416       .  A
C1283      C1289   1.451       .  S
C1284      C1285   1.416       .  A
C1285      C1286   1.411       .  A
C1285      C1288   1.451       .  S
C1286      C1290   1.450       .  S
C1287      N1294   1.157       .  T
C1288      N1295   1.157   1_455  T
C1289      N1293   1.157       .  T
C1290      N1296   1.157       .  T
C1291      N1300   1.157       .  T
C1292      N1298   1.157       .  T
C1301      C1302   1.409       .  A
C1301      C1306   1.411       .  A
C1301      C1319   1.451       .  S
C1302      C1307   1.494       .  S
C1302      C1303   1.408       .  A
C1303      C1304   1.409       .  A
C1303      C1308   1.451       .  S
C1304      C1305   1.418       .  A
C1304      C1320   1.451       .  S
C1305      C1306   1.418       .  A
C1306      C1309   1.451       .  S
C1307      C1310   1.410       .  A
C1307      C1314   1.409       .  A
C1308      N1325   1.157       .  T
C1309      N1327   1.157       .  T
C1310      C1311   1.410       .  A
C1310      C1315   1.451       .  S
C1311      C1312   1.416       .  A
C1311      C1317   1.451       .  S
C1312      C1313   1.417       .  A
C1313      C1314   1.411       .  A
C1313      C1316   1.450       .  S
C1314      C1318   1.451       .  S
C1315      N1322   1.157       .  T
C1316      N1323   1.157       .  T
C1317      N1321   1.157       .  T
C1318      N1324   1.157       .  T
C1319      N1328   1.157       .  T
C1320      N1326   1.157       .  T
C1329      C1330   1.414       .  A
C1329      C1334   1.407       .  A
C1329      C1347   1.451       .  S
C1330      C1335   1.495       .  S
C1330      C1331   1.413       .  A
C1331      C1332   1.408       .  A
C1331      C1336   1.451       .  S
C1332      C1333   1.410       .  A
C1332      C1348   1.451       .  S
C1333      C1334   1.409       .  A
C1334      C1337   1.451       .  S
C1335      C1338   1.408       .  A
C1335      C1342   1.407       .  A
C1336      N1353   1.157       .  T
C1337      N1355   1.157       .  T
C1338      C1339   1.411       .  A
C1338      C1343   1.453       .  S
C1339      C1340   1.426       .  A
C1339      C1345   1.452       .  S
C1340      C1341   1.423       .  A
C1341      C1342   1.410       .  A
C1341      C1344   1.449       .  S
C1342      C1346   1.453       .  S
C1343      N1350   1.157       .  T
C1344      N1351   1.157   1_545  T
C1345      N1349   1.157       .  T
C1346      N1352   1.157       .  T
C1347      N1356   1.157       .  T
C1348      N1354   1.157       .  T
C1357      C1358   1.413       .  A
C1357      C1362   1.412       .  A
C1357      C1375   1.450       .  S
C1358      C1363   1.498       .  S
C1358      C1359   1.412       .  A
C1359      C1360   1.406       .  A
C1359      C1364   1.451       .  S
C1360      C1361   1.411       .  A
C1360      C1376   1.452       .  S
C1361      C1362   1.411       .  A
C1362      C1365   1.451       .  S
C1363      C1366   1.407       .  A
C1363      C1370   1.409       .  A
C1364      N1381   1.157       .  T
C1365      N1383   1.157       .  T
C1366      C1367   1.411       .  A
C1366      C1371   1.453       .  S
C1367      C1368   1.425       .  A
C1367      C1373   1.451       .  S
C1368      C1369   1.422       .  A
C1369      C1370   1.413       .  A
C1369      C1372   1.450       .  S
C1370      C1374   1.452       .  S
C1371      N1378   1.157       .  T
C1372      N1379   1.157       .  T
C1373      N1377   1.157       .  T
C1374      N1380   1.157       .  T
C1375      N1384   1.157       .  T
C1376      N1382   1.157       .  T
C1385      C1386   1.408       .  A
C1385      C1390   1.414       .  A
C1385      C1403   1.451       .  S
C1386      C1391   1.501       .  S
C1386      C1387   1.408       .  A
C1387      C1388   1.414       .  A
C1387      C1392   1.451       .  S
C1388      C1389   1.420       .  A
C1388      C1404   1.449       .  S
C1389      C1390   1.422       .  A
C1390      C1393   1.451       .  S
C1391      C1394   1.411       .  A
C1391      C1398   1.411       .  A
C1392      N1409   1.157       .  T
C1393      N1411   1.157       .  T
C1394      C1395   1.414       .  A
C1394      C1399   1.449       .  S
C1395      C1396   1.415       .  A
C1395      C1401   1.450       .  S
C1396      C1397   1.416       .  A
C1397      C1398   1.412       .  A
C1397      C1400   1.451       .  S
C1398      C1402   1.451       .  S
C1399      N1406   1.157       .  T
C1400      N1407   1.157       .  T
C1401      N1405   1.157       .  T
C1402      N1408   1.157       .  T
C1403      N1412   1.157       .  T
C1404      N1410   1.157       .  T
C1413      C1414   1.411       .  A
C1413      C1418   1.410       .  A
C1413      C1431   1.452       .  S
C1414      C1419   1.498       .  S
C1414      C1415   1.411       .  A
C1415      C1416   1.411       .  A
C1415      C1420   1.450       .  S
C1416      C1417   1.414       .  A
C1416      C1432   1.450       .  S
C1417      C1418   1.415       .  A
C1418      C1421   1.449       .  S
C1419      C1422   1.410       .  A
C1419      C1426   1.408       .  A
C1420      N1437   1.157       .  T
C1421      N1439   1.156       .  T
C1422      C1423   1.415       .  A
C1422      C1427   1.451       .  S
C1423      C1424   1.419       .  A
C1423      C1429   1.450       .  S
C1424      C1425   1.417       .  A
C1425      C1426   1.409       .  A
C1425      C1428   1.449       .  S
C1426      C1430   1.452       .  S
C1427      N1434   1.157       .  T
C1428      N1435   1.157       .  T
C1429      N1433   1.157       .  T
C1430      N1436   1.157       .  T
C1431      N1440   1.157       .  T
C1432      N1438   1.157       .  T
C1441      C1442   1.412       .  A
C1441      C1446   1.413       .  A
C1441      C1459   1.451       .  S
C1442      C1447   1.504       .  S
C1442      C1443   1.412       .  A
C1443      C1444   1.411       .  A
C1443      C1448   1.452       .  S
C1444      C1445   1.419       .  A
C1444      C1460   1.451       .  S
C1445      C1446   1.417       .  A
C1446      C1449   1.449       .  S
C1447      C1450   1.413       .  A
C1447      C1454   1.414       .  A
C1448      N1465   1.157       .  T
C1449      N1467   1.157       .  T
C1450      C1451   1.413       .  A
C1450      C1455   1.451       .  S
C1451      C1452   1.414       .  A
C1451      C1457   1.450       .  S
C1452      C1453   1.413       .  A
C1453      C1454   1.413       .  A
C1453      C1456   1.450       .  S
C1454      C1458   1.451       .  S
C1455      N1462   1.157       .  T
C1456      N1463   1.157       .  T
C1457      N1461   1.157       .  T
C1458      N1464   1.157       .  T
C1459      N1468   1.157       .  T
C1460      N1466   1.157       .  T
C1469      C1470   1.409       .  A
C1469      C1474   1.417       .  A
C1469      C1487   1.451       .  S
C1470      C1475   1.501       .  S
C1470      C1471   1.408       .  A
C1471      C1472   1.412       .  A
C1471      C1476   1.452       .  S
C1472      C1473   1.420       .  A
C1472      C1488   1.449       .  S
C1473      C1474   1.422       .  A
C1474      C1477   1.451   1_455  S
C1475      C1478   1.411       .  A
C1475      C1482   1.411       .  A
C1476      N1493   1.157       .  T
C1477      N1495   1.157       .  T
C1478      C1479   1.412   1_565  A
C1478      C1483   1.450       .  S
C1479      C1480   1.416       .  A
C1479      C1485   1.451       .  S
C1480      C1481   1.415       .  A
C1481      C1482   1.413   1_545  A
C1481      C1484   1.450       .  S
C1482      C1486   1.450       .  S
C1483      N1490   1.157       .  T
C1484      N1491   1.157       .  T
C1485      N1489   1.157       .  T
C1486      N1492   1.157       .  T
C1487      N1496   1.157       .  T
C1488      N1494   1.157       .  T
C1497      C1498   1.409       .  A
C1497      C1502   1.412       .  A
C1497      C1515   1.451       .  S
C1498      C1503   1.502       .  S
C1498      C1499   1.410       .  A
C1499      C1500   1.417       .  A
C1499      C1504   1.450       .  S
C1500      C1501   1.419       .  A
C1500      C1516   1.449       .  S
C1501      C1502   1.418       .  A
C1502      C1505   1.450       .  S
C1503      C1506   1.411       .  A
C1503      C1510   1.410       .  A
C1504      N1521   1.157       .  T
C1505      N1523   1.157       .  T
C1506      C1507   1.415       .  A
C1506      C1511   1.451       .  S
C1507      C1508   1.420       .  A
C1507      C1513   1.450       .  S
C1508      C1509   1.416       .  A
C1509      C1510   1.412       .  A
C1509      C1512   1.451       .  S
C1510      C1514   1.450       .  S
C1511      N1518   1.157       .  T
C1512      N1519   1.157       .  T
C1513      N1517   1.157       .  T
C1514      N1520   1.157       .  T
C1515      N1524   1.157       .  T
C1516      N1522   1.157       .  T
C1525      C1526   1.408       .  A
C1525      C1530   1.409   1_565  A
C1525      C1543   1.452       .  S
C1526      C1531   1.497       .  S
C1526      C1527   1.409   1_565  A
C1527      C1528   1.415       .  A
C1527      C1532   1.452   1_545  S
C1528      C1529   1.421       .  A
C1528      C1544   1.450       .  S
C1529      C1530   1.418       .  A
C1530      C1533   1.449   1_545  S
C1531      C1534   1.411       .  A
C1531      C1538   1.411       .  A
C1532      N1549   1.157       .  T
C1533      N1551   1.157       .  T
C1534      C1535   1.410       .  A
C1534      C1539   1.451       .  S
C1535      C1536   1.415       .  A
C1535      C1541   1.451       .  S
C1536      C1537   1.416       .  A
C1537      C1538   1.411       .  A
C1537      C1540   1.451       .  S
C1538      C1542   1.451       .  S
C1539      N1546   1.157       .  T
C1540      N1547   1.157       .  T
C1541      N1545   1.157       .  T
C1542      N1548   1.157       .  T
C1543      N1552   1.157       .  T
C1544      N1550   1.157       .  T
C1553      C1554   1.410       .  A
C1553      C1558   1.411       .  A
C1553      C1571   1.451       .  S
C1554      C1559   1.500       .  S
C1554      C1555   1.410       .  A
C1555      C1556   1.413       .  A
C1555      C1560   1.451       .  S
C1556      C1557   1.418       .  A
C1556      C1572   1.450       .  S
C1557      C1558   1.417       .  A
C1558      C1561   1.451       .  S
C1559      C1562   1.412       .  A
C1559      C1566   1.412       .  A
C1560      N1577   1.157       .  T
C1561      N1579   1.157       .  T
C1562      C1563   1.412       .  A
C1562      C1567   1.451       .  S
C1563      C1564   1.413       .  A
C1563      C1569   1.450       .  S
C1564      C1565   1.415       .  A
C1565      C1566   1.412       .  A
C1565      C1568   1.451       .  S
C1566      C1570   1.451       .  S
C1567      N1574   1.157       .  T
C1568      N1575   1.157       .  T
C1569      N1573   1.157       .  T
C1570      N1576   1.157       .  T
C1571      N1580   1.157       .  T
C1572      N1578   1.157       .  T
C1581      C1582   1.406       .  A
C1581      C1586   1.409       .  A
C1581      C1599   1.453       .  S
C1582      C1587   1.498       .  S
C1582      C1583   1.408       .  A
C1583      C1584   1.415       .  A
C1583      C1588   1.452       .  S
C1584      C1585   1.427       .  A
C1584      C1600   1.451       .  S
C1585      C1586   1.428       .  A
C1586      C1589   1.452       .  S
C1587      C1590   1.413       .  A
C1587      C1594   1.412       .  A
C1588      N1605   1.157       .  T
C1589      N1607   1.157       .  T
C1590      C1591   1.412       .  A
C1590      C1595   1.451       .  S
C1591      C1592   1.412       .  A
C1591      C1597   1.451       .  S
C1592      C1593   1.410       .  A
C1593      C1594   1.409       .  A
C1593      C1596   1.450       .  S
C1594      C1598   1.451       .  S
C1595      N1602   1.157       .  T
C1596      N1603   1.157       .  T
C1597      N1601   1.157       .  T
C1598      N1604   1.157       .  T
C1599      N1608   1.157       .  T
C1600      N1606   1.158       .  T
C1609      C1610   1.407       .  A
C1609      C1614   1.412       .  A
C1609      C1627   1.451       .  S
C1610      C1615   1.501   1_556  S
C1610      C1611   1.411       .  A
C1611      C1612   1.413   1_545  A
C1611      C1616   1.453   1_545  S
C1612      C1613   1.423   1_565  A
C1612      C1628   1.450       .  S
C1613      C1614   1.425       .  A
C1614      C1617   1.452       .  S
C1615      C1618   1.411       .  A
C1615      C1622   1.410       .  A
C1616      N1633   1.157   1_556  T
C1617      N1635   1.157       .  T
C1618      C1619   1.411       .  A
C1618      C1623   1.452       .  S
C1619      C1620   1.416       .  A
C1619      C1625   1.450       .  S
C1620      C1621   1.418       .  A
C1621      C1622   1.412       .  A
C1621      C1624   1.451       .  S
C1622      C1626   1.450       .  S
C1623      N1630   1.157   1_554  T
C1624      N1631   1.157       .  T
C1625      N1629   1.157       .  T
C1626      N1632   1.157       .  T
C1627      N1636   1.157       .  T
C1628      N1634   1.157       .  T
C1637      C1638   1.407       .  A
C1637      C1642   1.412       .  A
C1637      C1655   1.452   1_565  S
C1638      C1643   1.495       .  S
C1638      C1639   1.407       .  A
C1639      C1640   1.410       .  A
C1639      C1644   1.452       .  S
C1640      C1641   1.425       .  A
C1640      C1656   1.452       .  S
C1641      C1642   1.424       .  A
C1642      C1645   1.450   1_565  S
C1643      C1646   1.411   1_565  A
C1643      C1650   1.413       .  A
C1644      N1661   1.157       .  T
C1645      N1663   1.157       .  T
C1646      C1647   1.408       .  A
C1646      C1651   1.450       .  S
C1647      C1648   1.410       .  A
C1647      C1653   1.450       .  S
C1648      C1649   1.411   1_545  A
C1649      C1650   1.411       .  A
C1649      C1652   1.451       .  S
C1650      C1654   1.451       .  S
C1651      N1658   1.157       .  T
C1652      N1659   1.158       .  T
C1653      N1657   1.157       .  T
C1654      N1660   1.157       .  T
C1655      N1664   1.157       .  T
C1656      N1662   1.157       .  T
C1665      C1666   1.407       .  A
C1665      C1670   1.412       .  A
C1665      C1683   1.452       .  S
C1666      C1671   1.500   1_556  S
C1666      C1667   1.409       .  A
C1667      C1668   1.414       .  A
C1667      C1672   1.451       .  S
C1668      C1669   1.423       .  A
C1668      C1684   1.450       .  S
C1669      C1670   1.427       .  A
C1670      C1673   1.451       .  S
C1671      C1674   1.411       .  A
C1671      C1678   1.409       .  A
C1672      N1689   1.157   1_556  T
C1673      N1691   1.157       .  T
C1674      C1675   1.413       .  A
C1674      C1679   1.451       .  S
C1675      C1676   1.418       .  A
C1675      C1681   1.450       .  S
C1676      C1677   1.419       .  A
C1677      C1678   1.413       .  A
C1677      C1680   1.450       .  S
C1678      C1682   1.451       .  S
C1679      N1686   1.157   1_554  T
C1680      N1687   1.157       .  T
C1681      N1685   1.157       .  T
C1682      N1688   1.157       .  T
C1683      N1692   1.157       .  T
C1684      N1690   1.157       .  T
C1693      C1694   1.408       .  A
C1693      C1698   1.409       .  A
C1693      C1711   1.452       .  S
C1694      C1699   1.494       .  S
C1694      C1695   1.408       .  A
C1695      C1696   1.412       .  A
C1695      C1700   1.451       .  S
C1696      C1697   1.420       .  A
C1696      C1712   1.451       .  S
C1697      C1698   1.417       .  A
C1698      C1701   1.450       .  S
C1699      C1702   1.409       .  A
C1699      C1706   1.409       .  A
C1700      N1717   1.157       .  T
C1701      N1719   1.157       .  T
C1702      C1703   1.411       .  A
C1702      C1707   1.451       .  S
C1703      C1704   1.417       .  A
C1703      C1709   1.451       .  S
C1704      C1705   1.416       .  A
C1705      C1706   1.410       .  A
C1705      C1708   1.451       .  S
C1706      C1710   1.451       .  S
C1707      N1714   1.157       .  T
C1708      N1715   1.157       .  T
C1709      N1713   1.157       .  T
C1710      N1716   1.157       .  T
C1711      N1720   1.157       .  T
C1712      N1718   1.157       .  T
C1721      C1722   1.408       .  A
C1721      C1726   1.411       .  A
C1721      C1739   1.453       .  S
C1722      C1727   1.502       .  S
C1722      C1723   1.409       .  A
C1723      C1724   1.415       .  A
C1723      C1728   1.451       .  S
C1724      C1725   1.424       .  A
C1724      C1740   1.451       .  S
C1725      C1726   1.426       .  A
C1726      C1729   1.451       .  S
C1727      C1730   1.413       .  A
C1727      C1734   1.413       .  A
C1728      N1745   1.157       .  T
C1729      N1747   1.157       .  T
C1730      C1731   1.413       .  A
C1730      C1735   1.450       .  S
C1731      C1732   1.412       .  A
C1731      C1737   1.451       .  S
C1732      C1733   1.411       .  A
C1733      C1734   1.412       .  A
C1733      C1736   1.450       .  S
C1734      C1738   1.451       .  S
C1735      N1742   1.157       .  T
C1736      N1743   1.157       .  T
C1737      N1741   1.157       .  T
C1738      N1744   1.157       .  T
C1739      N1748   1.157       .  T
C1740      N1746   1.158       .  T
C1749      C1750   1.415       .  A
C1749      C1754   1.413       .  A
C1749      C1767   1.450       .  S
C1750      C1755   1.506       .  S
C1750      C1751   1.415       .  A
C1751      C1752   1.412       .  A
C1751      C1756   1.451       .  S
C1752      C1753   1.412       .  A
C1752      C1768   1.450       .  S
C1753      C1754   1.412       .  A
C1754      C1757   1.449       .  S
C1755      C1758   1.415       .  A
C1755      C1762   1.412   1_655  A
C1756      N1773   1.157       .  T
C1757      N1775   1.157       .  T
C1758      C1759   1.414   1_655  A
C1758      C1763   1.450       .  S
C1759      C1760   1.415       .  A
C1759      C1765   1.451       .  S
C1760      C1761   1.418       .  A
C1761      C1762   1.413       .  A
C1761      C1764   1.450       .  S
C1762      C1766   1.452   1_455  S
C1763      N1770   1.157       .  T
C1764      N1771   1.157       .  T
C1765      N1769   1.157       .  T
C1766      N1772   1.157       .  T
C1767      N1776   1.157   1_655  T
C1768      N1774   1.157       .  T
C1777      C1778   1.410       .  A
C1777      C1782   1.410       .  A
C1777      C1795   1.452       .  S
C1778      C1783   1.494       .  S
C1778      C1779   1.409       .  A
C1779      C1780   1.410       .  A
C1779      C1784   1.450       .  S
C1780      C1781   1.415       .  A
C1780      C1796   1.450       .  S
C1781      C1782   1.415       .  A
C1782      C1785   1.449       .  S
C1783      C1786   1.409       .  A
C1783      C1790   1.407       .  A
C1784      N1801   1.157       .  T
C1785      N1803   1.157       .  T
C1786      C1787   1.411       .  A
C1786      C1791   1.452       .  S
C1787      C1788   1.418       .  A
C1787      C1793   1.450       .  S
C1788      C1789   1.421       .  A
C1789      C1790   1.410       .  A
C1789      C1792   1.450       .  S
C1790      C1794   1.452       .  S
C1791      N1798   1.157       .  T
C1792      N1799   1.157       .  T
C1793      N1797   1.157       .  T
C1794      N1800   1.157       .  T
C1795      N1804   1.157       .  T
C1796      N1802   1.157       .  T
C1805      C1806   1.408       .  A
C1805      C1810   1.416       .  A
C1805      C1823   1.452       .  S
C1806      C1811   1.504       .  S
C1806      C1807   1.407       .  A
C1807      C1808   1.414       .  A
C1807      C1812   1.453       .  S
C1808      C1809   1.430       .  A
C1808      C1824   1.452       .  S
C1809      C1810   1.427       .  A
C1810      C1813   1.450       .  S
C1811      C1814   1.414       .  A
C1811      C1818   1.413       .  A
C1812      N1829   1.157       .  T
C1813      N1831   1.157       .  T
C1814      C1815   1.412       .  A
C1814      C1819   1.450       .  S
C1815      C1816   1.411       .  A
C1815      C1821   1.451       .  S
C1816      C1817   1.412       .  A
C1817      C1818   1.413       .  A
C1817      C1820   1.450       .  S
C1818      C1822   1.450       .  S
C1819      N1826   1.157       .  T
C1820      N1827   1.157       .  T
C1821      N1825   1.157       .  T
C1822      N1828   1.157       .  T
C1823      N1832   1.157       .  T
C1824      N1830   1.158       .  T
C1833      C1834   1.412       .  A
C1833      C1838   1.411       .  A
C1833      C1851   1.451       .  S
C1834      C1839   1.502       .  S
C1834      C1835   1.412       .  A
C1835      C1836   1.413       .  A
C1835      C1840   1.451       .  S
C1836      C1837   1.414       .  A
C1836      C1852   1.449       .  S
C1837      C1838   1.414       .  A
C1838      C1841   1.450       .  S
C1839      C1842   1.412       .  A
C1839      C1846   1.411       .  A
C1840      N1857   1.157       .  T
C1841      N1859   1.157       .  T
C1842      C1843   1.415       .  A
C1842      C1847   1.451       .  S
C1843      C1844   1.418       .  A
C1843      C1849   1.450       .  S
C1844      C1845   1.415       .  A
C1845      C1846   1.411       .  A
C1845      C1848   1.450       .  S
C1846      C1850   1.451       .  S
C1847      N1854   1.157       .  T
C1848      N1855   1.157       .  T
C1849      N1853   1.157       .  T
C1850      N1856   1.157       .  T
C1851      N1860   1.157       .  T
C1852      N1858   1.157       .  T
C1861      C1862   1.413       .  A
C1861      C1866   1.412       .  A
C1861      C1879   1.452       .  S
C1862      C1867   1.508       .  S
C1862      C1863   1.413       .  A
C1863      C1864   1.416       .  A
C1863      C1868   1.451       .  S
C1864      C1865   1.419       .  A
C1864      C1880   1.450       .  S
C1865      C1866   1.417       .  A
C1866      C1869   1.450       .  S
C1867      C1870   1.414       .  A
C1867      C1874   1.415       .  A
C1868      N1885   1.157       .  T
C1869      N1887   1.157       .  T
C1870      C1871   1.415       .  A
C1870      C1875   1.450       .  S
C1871      C1872   1.414       .  A
C1871      C1877   1.450       .  S
C1872      C1873   1.413       .  A
C1873      C1874   1.414       .  A
C1873      C1876   1.450       .  S
C1874      C1878   1.451       .  S
C1875      N1882   1.157       .  T
C1876      N1883   1.157       .  T
C1877      N1881   1.157       .  T
C1878      N1884   1.157       .  T
C1879      N1888   1.157       .  T
C1880      N1886   1.157       .  T
C1889      C1890   1.411       .  A
C1889      C1894   1.414   1_655  A
C1889      C1907   1.450       .  S
C1890      C1895   1.507       .  S
C1890      C1891   1.412       .  A
C1891      C1892   1.416   1_655  A
C1891      C1896   1.449       .  S
C1892      C1893   1.416       .  A
C1892      C1908   1.450       .  S
C1893      C1894   1.417       .  A
C1894      C1897   1.451       .  S
C1895      C1898   1.408       .  A
C1895      C1902   1.406       .  A
C1896      N1913   1.157       .  T
C1897      N1915   1.157       .  T
C1898      C1899   1.419       .  A
C1898      C1903   1.452       .  S
C1899      C1900   1.429       .  A
C1899      C1905   1.449       .  S
C1900      C1901   1.428       .  A
C1901      C1902   1.416       .  A
C1901      C1904   1.449       .  S
C1902      C1906   1.452       .  S
C1903      N1910   1.157       .  T
C1904      N1911   1.157       .  T
C1905      N1909   1.157   1_545  T
C1906      N1912   1.157       .  T
C1907      N1916   1.157       .  T
C1908      N1914   1.157       .  T
C1917      C1918   1.414       .  A
C1917      C1922   1.414       .  A
C1917      C1935   1.451       .  S
C1918      C1923   1.508       .  S
C1918      C1919   1.414       .  A
C1919      C1920   1.416       .  A
C1919      C1924   1.450       .  S
C1920      C1921   1.414       .  A
C1920      C1936   1.450       .  S
C1921      C1922   1.412       .  A
C1922      C1925   1.449       .  S
C1923      C1926   1.411       .  A
C1923      C1930   1.411       .  A
C1924      N1941   1.157       .  T
C1925      N1943   1.157       .  T
C1926      C1927   1.417       .  A
C1926      C1931   1.451       .  S
C1927      C1928   1.423       .  A
C1927      C1933   1.451       .  S
C1928      C1929   1.421       .  A
C1929      C1930   1.414       .  A
C1929      C1932   1.451       .  S
C1930      C1934   1.451       .  S
C1931      N1938   1.157       .  T
C1932      N1939   1.157       .  T
C1933      N1937   1.158       .  T
C1934      N1940   1.157       .  T
C1935      N1944   1.157       .  T
C1936      N1942   1.157       .  T
C1945      C1946   1.413       .  A
C1945      C1950   1.410       .  A
C1945      C1963   1.452       .  S
C1946      C1951   1.504   1_556  S
C1946      C1947   1.412       .  A
C1947      C1948   1.414       .  A
C1947      C1952   1.450       .  S
C1948      C1949   1.418       .  A
C1948      C1964   1.451       .  S
C1949      C1950   1.416       .  A
C1950      C1953   1.451       .  S
C1951      C1954   1.409       .  A
C1951      C1958   1.413   1_455  A
C1952      N1969   1.157       .  T
C1953      N1971   1.157       .  T
C1954      C1955   1.410       .  A
C1954      C1959   1.453       .  S
C1955      C1956   1.420       .  A
C1955      C1961   1.450       .  S
C1956      C1957   1.420   1_455  A
C1957      C1958   1.417       .  A
C1957      C1960   1.450       .  S
C1958      C1962   1.451       .  S
C1959      N1966   1.157       .  T
C1960      N1967   1.157       .  T
C1961      N1965   1.157       .  T
C1962      N1968   1.157       .  T
C1963      N1972   1.157   1_556  T
C1964      N1970   1.157       .  T
C1973      C1974   1.410       .  A
C1973      C1978   1.412       .  A
C1973      C1991   1.452       .  S
C1974      C1979   1.496       .  S
C1974      C1975   1.408       .  A
C1975      C1976   1.411       .  A
C1975      C1980   1.451       .  S
C1976      C1977   1.418       .  A
C1976      C1992   1.452       .  S
C1977      C1978   1.418       .  A
C1978      C1981   1.450       .  S
C1979      C1982   1.409       .  A
C1979      C1986   1.408       .  A
C1980      N1997   1.157       .  T
C1981      N1999   1.157       .  T
C1982      C1983   1.410       .  A
C1982      C1987   1.452       .  S
C1983      C1984   1.417       .  A
C1983      C1989   1.450       .  S
C1984      C1985   1.420       .  A
C1985      C1986   1.413       .  A
C1985      C1988   1.450       .  S
C1986      C1990   1.451       .  S
C1987      N1994   1.157       .  T
C1988      N1995   1.157       .  T
C1989      N1993   1.157       .  T
C1990      N1996   1.157       .  T
C1991      N2000   1.157       .  T
C1992      N1998   1.157       .  T
C2001      C2002   1.412       .  A
C2001      C2006   1.413       .  A
C2001      C2019   1.451       .  S
C2002      C2007   1.507       .  S
C2002      C2003   1.413       .  A
C2003      C2004   1.417       .  A
C2003      C2008   1.450       .  S
C2004      C2005   1.417       .  A
C2004      C2020   1.450       .  S
C2005      C2006   1.416       .  A
C2006      C2009   1.451       .  S
C2007      C2010   1.412       .  A
C2007      C2014   1.411       .  A
C2008      N2025   1.157       .  T
C2009      N2027   1.157       .  T
C2010      C2011   1.416       .  A
C2010      C2015   1.450       .  S
C2011      C2012   1.418       .  A
C2011      C2017   1.451       .  S
C2012      C2013   1.417       .  A
C2013      C2014   1.414       .  A
C2013      C2016   1.449       .  S
C2014      C2018   1.451       .  S
C2015      N2022   1.157       .  T
C2016      N2023   1.157       .  T
C2017      N2021   1.157       .  T
C2018      N2024   1.157       .  T
C2019      N2028   1.157       .  T
C2020      N2026   1.157       .  T
C2029      C2030   1.409       .  A
C2029      C2034   1.412       .  A
C2029      C2047   1.452       .  S
C2030      C2035   1.499       .  S
C2030      C2031   1.409       .  A
C2031      C2032   1.414       .  A
C2031      C2036   1.450       .  S
C2032      C2033   1.421       .  A
C2032      C2048   1.450       .  S
C2033      C2034   1.419       .  A
C2034      C2037   1.450       .  S
C2035      C2038   1.412       .  A
C2035      C2042   1.410       .  A
C2036      N2053   1.157       .  T
C2037      N2055   1.157       .  T
C2038      C2039   1.414       .  A
C2038      C2043   1.451       .  S
C2039      C2040   1.416       .  A
C2039      C2045   1.451       .  S
C2040      C2041   1.415       .  A
C2041      C2042   1.411       .  A
C2041      C2044   1.451       .  S
C2042      C2046   1.450       .  S
C2043      N2050   1.157       .  T
C2044      N2051   1.157       .  T
C2045      N2049   1.157       .  T
C2046      N2052   1.157       .  T
C2047      N2056   1.157       .  T
C2048      N2054   1.157       .  T
C2057      C2058   1.409       .  A
C2057      C2062   1.414       .  A
C2057      C2075   1.451       .  S
C2058      C2063   1.499       .  S
C2058      C2059   1.408       .  A
C2059      C2060   1.411       .  A
C2059      C2064   1.452       .  S
C2060      C2061   1.420       .  A
C2060      C2076   1.450       .  S
C2061      C2062   1.423       .  A
C2062      C2065   1.451       .  S
C2063      C2066   1.410       .  A
C2063      C2070   1.409       .  A
C2064      N2081   1.157       .  T
C2065      N2083   1.157       .  T
C2066      C2067   1.412       .  A
C2066      C2071   1.451       .  S
C2067      C2068   1.417       .  A
C2067      C2073   1.451       .  S
C2068      C2069   1.417       .  A
C2069      C2070   1.413       .  A
C2069      C2072   1.450       .  S
C2070      C2074   1.450       .  S
C2071      N2078   1.157       .  T
C2072      N2079   1.157       .  T
C2073      N2077   1.157       .  T
C2074      N2080   1.157       .  T
C2075      N2084   1.157       .  T
C2076      N2082   1.157       .  T
C2085      C2086   1.414       .  A
C2085      C2090   1.412       .  A
C2085      C2103   1.450       .  S
C2086      C2091   1.501       .  S
C2086      C2087   1.413       .  A
C2087      C2088   1.412       .  A
C2087      C2092   1.451       .  S
C2088      C2089   1.411       .  A
C2088      C2104   1.450       .  S
C2089      C2090   1.410       .  A
C2090      C2093   1.451       .  S
C2091      C2094   1.410       .  A
C2091      C2098   1.409       .  A
C2092      N2109   1.157       .  T
C2093      N2111   1.157       .  T
C2094      C2095   1.412       .  A
C2094      C2099   1.452       .  S
C2095      C2096   1.424       .  A
C2095      C2101   1.452       .  S
C2096      C2097   1.424       .  A
C2097      C2098   1.412       .  A
C2097      C2100   1.451       .  S
C2098      C2102   1.451       .  S
C2099      N2106   1.157       .  T
C2100      N2107   1.157       .  T
C2101      N2105   1.157       .  T
C2102      N2108   1.157       .  T
C2103      N2112   1.157       .  T
C2104      N2110   1.157       .  T
C2113      C2114   1.408       .  A
C2113      C2118   1.408       .  A
C2113      C2131   1.453       .  S
C2114      C2119   1.498       .  S
C2114      C2115   1.411       .  A
C2115      C2116   1.416       .  A
C2115      C2120   1.450       .  S
C2116      C2117   1.417       .  A
C2116      C2132   1.450       .  S
C2117      C2118   1.419       .  A
C2118      C2121   1.451       .  S
C2119      C2122   1.410       .  A
C2119      C2126   1.412       .  A
C2120      N2137   1.157       .  T
C2121      N2139   1.157       .  T
C2122      C2123   1.408       .  A
C2122      C2127   1.452       .  S
C2123      C2124   1.415       .  A
C2123      C2129   1.449       .  S
C2124      C2125   1.413       .  A
C2125      C2126   1.414       .  A
C2125      C2128   1.450       .  S
C2126      C2130   1.450       .  S
C2127      N2134   1.157       .  T
C2128      N2135   1.157       .  T
C2129      N2133   1.156       .  T
C2130      N2136   1.157       .  T
C2131      N2140   1.157       .  T
C2132      N2138   1.157       .  T
C2141      C2142   1.408       .  A
C2141      C2146   1.412       .  A
C2141      C2159   1.452       .  S
C2142      C2147   1.504       .  S
C2142      C2143   1.411       .  A
C2143      C2144   1.414       .  A
C2143      C2148   1.452       .  S
C2144      C2145   1.421       .  A
C2144      C2160   1.448       .  S
C2145      C2146   1.427       .  A
C2146      C2149   1.453       .  S
C2147      C2150   1.414       .  A
C2147      C2154   1.411       .  A
C2148      N2165   1.157       .  T
C2149      N2167   1.158   1_565  T
C2150      C2151   1.414       .  A
C2150      C2155   1.452       .  S
C2151      C2152   1.417       .  A
C2151      C2157   1.449       .  S
C2152      C2153   1.419       .  A
C2153      C2154   1.411       .  A
C2153      C2156   1.451       .  S
C2154      C2158   1.452       .  S
C2155      N2162   1.157       .  T
C2156      N2163   1.157       .  T
C2157      N2161   1.157       .  T
C2158      N2164   1.157       .  T
C2159      N2168   1.157   1_565  T
C2160      N2166   1.157       .  T
C2169      C2170   1.411       .  A
C2169      C2174   1.410       .  A
C2169      C2187   1.451       .  S
C2170      C2175   1.498       .  S
C2170      C2171   1.410       .  A
C2171      C2172   1.413       .  A
C2171      C2176   1.450       .  S
C2172      C2173   1.417       .  A
C2172      C2188   1.450       .  S
C2173      C2174   1.414       .  A
C2174      C2177   1.450       .  S
C2175      C2178   1.408       .  A
C2175      C2182   1.410       .  A
C2176      N2193   1.157       .  T
C2177      N2195   1.157       .  T
C2178      C2179   1.410       .  A
C2178      C2183   1.451       .  S
C2179      C2180   1.420       .  A
C2179      C2185   1.451       .  S
C2180      C2181   1.417       .  A
C2181      C2182   1.412       .  A
C2181      C2184   1.449       .  S
C2182      C2186   1.451       .  S
C2183      N2190   1.157       .  T
C2184      N2191   1.157       .  T
C2185      N2189   1.157       .  T
C2186      N2192   1.157       .  T
C2187      N2196   1.157       .  T
C2188      N2194   1.157       .  T
C2197      C2198   1.410       .  A
C2197      C2202   1.412       .  A
C2197      C2215   1.452       .  S
C2198      C2203   1.497       .  S
C2198      C2199   1.408       .  A
C2199      C2200   1.412       .  A
C2199      C2204   1.450       .  S
C2200      C2201   1.419       .  A
C2200      C2216   1.451       .  S
C2201      C2202   1.419       .  A
C2202      C2205   1.451       .  S
C2203      C2206   1.404       .  A
C2203      C2210   1.408       .  A
C2204      N2221   1.157       .  T
C2205      N2223   1.157       .  T
C2206      C2207   1.411       .  A
C2206      C2211   1.453       .  S
C2207      C2208   1.430       .  A
C2207      C2213   1.451       .  S
C2208      C2209   1.424       .  A
C2209      C2210   1.414       .  A
C2209      C2212   1.450       .  S
C2210      C2214   1.451       .  S
C2211      N2218   1.157       .  T
C2212      N2219   1.157       .  T
C2213      N2217   1.157       .  T
C2214      N2220   1.157       .  T
C2215      N2224   1.157       .  T
C2216      N2222   1.157       .  T
C2225      C2226   1.410       .  A
C2225      C2230   1.411       .  A
C2225      C2243   1.452       .  S
C2226      C2231   1.503       .  S
C2226      C2227   1.412       .  A
C2227      C2228   1.412       .  A
C2227      C2232   1.451       .  S
C2228      C2229   1.420       .  A
C2228      C2244   1.451   1_455  S
C2229      C2230   1.421       .  A
C2230      C2233   1.451       .  S
C2231      C2234   1.416       .  A
C2231      C2238   1.416       .  A
C2232      N2249   1.157       .  T
C2233      N2251   1.157       .  T
C2234      C2235   1.412       .  A
C2234      C2239   1.450       .  S
C2235      C2236   1.410   1_565  A
C2235      C2241   1.451       .  S
C2236      C2237   1.409       .  A
C2237      C2238   1.409   1_545  A
C2237      C2240   1.451       .  S
C2238      C2242   1.451       .  S
C2239      N2246   1.157       .  T
C2240      N2247   1.157       .  T
C2241      N2245   1.157   1_565  T
C2242      N2248   1.157       .  T
C2243      N2252   1.157       .  T
C2244      N2250   1.158       .  T
C2253      C2254   1.412       .  A
C2253      C2258   1.413       .  A
C2253      C2271   1.451       .  S
C2254      C2259   1.500       .  S
C2254      C2255   1.410       .  A
C2255      C2256   1.411       .  A
C2255      C2260   1.451       .  S
C2256      C2257   1.417       .  A
C2256      C2272   1.451       .  S
C2257      C2258   1.416       .  A
C2258      C2261   1.450       .  S
C2259      C2262   1.410       .  A
C2259      C2266   1.411       .  A
C2260      N2277   1.157       .  T
C2261      N2279   1.157       .  T
C2262      C2263   1.412       .  A
C2262      C2267   1.451       .  S
C2263      C2264   1.417       .  A
C2263      C2269   1.450       .  S
C2264      C2265   1.419       .  A
C2265      C2266   1.413       .  A
C2265      C2268   1.451       .  S
C2266      C2270   1.451       .  S
C2267      N2274   1.157       .  T
C2268      N2275   1.157       .  T
C2269      N2273   1.157       .  T
C2270      N2276   1.157       .  T
C2271      N2280   1.157       .  T
C2272      N2278   1.157       .  T
C2281      C2282   1.407       .  A
C2281      C2286   1.411       .  A
C2281      C2299   1.451       .  S
C2282      C2287   1.499       .  S
C2282      C2283   1.412       .  A
C2283      C2284   1.411       .  A
C2283      C2288   1.453       .  S
C2284      C2285   1.420       .  A
C2284      C2300   1.449       .  S
C2285      C2286   1.423       .  A
C2286      C2289   1.451       .  S
C2287      C2290   1.409       .  A
C2287      C2294   1.404       .  A
C2288      N2305   1.157       .  T
C2289      N2307   1.157       .  T
C2290      C2291   1.415       .  A
C2290      C2295   1.451       .  S
C2291      C2292   1.424       .  A
C2291      C2297   1.449       .  S
C2292      C2293   1.431       .  A
C2293      C2294   1.410       .  A
C2293      C2296   1.452       .  S
C2294      C2298   1.453       .  S
C2295      N2302   1.157       .  T
C2296      N2303   1.157       .  T
C2297      N2301   1.157       .  T
C2298      N2304   1.157       .  T
C2299      N2308   1.157       .  T
C2300      N2306   1.157       .  T
C2309      C2310   1.408       .  A
C2309      C2314   1.409       .  A
C2309      C2327   1.451       .  S
C2310      C2315   1.495       .  S
C2310      C2311   1.410       .  A
C2311      C2312   1.412   1_655  A
C2311      C2316   1.451       .  S
C2312      C2313   1.417       .  A
C2312      C2328   1.451       .  S
C2313      C2314   1.419   1_455  A
C2314      C2317   1.451       .  S
C2315      C2318   1.412       .  A
C2315      C2322   1.410       .  A
C2316      N2333   1.157       .  T
C2317      N2335   1.157       .  T
C2318      C2319   1.412       .  A
C2318      C2323   1.450       .  S
C2319      C2320   1.412       .  A
C2319      C2325   1.450       .  S
C2320      C2321   1.415       .  A
C2321      C2322   1.409       .  A
C2321      C2324   1.452       .  S
C2322      C2326   1.451       .  S
C2323      N2330   1.157       .  T
C2324      N2331   1.157       .  T
C2325      N2329   1.157       .  T
C2326      N2332   1.157       .  T
C2327      N2336   1.157       .  T
C2328      N2334   1.157       .  T
C2337      C2338   1.412       .  A
C2337      C2342   1.412       .  A
C2337      C2355   1.450       .  S
C2338      C2343   1.503       .  S
C2338      C2339   1.412       .  A
C2339      C2340   1.413       .  A
C2339      C2344   1.450       .  S
C2340      C2341   1.413       .  A
C2340      C2356   1.449       .  S
C2341      C2342   1.414       .  A
C2342      C2345   1.452       .  S
C2343      C2346   1.408       .  A
C2343      C2350   1.411       .  A
C2344      N2361   1.157       .  T
C2345      N2363   1.157       .  T
C2346      C2347   1.412       .  A
C2346      C2351   1.452       .  S
C2347      C2348   1.421       .  A
C2347      C2353   1.450       .  S
C2348      C2349   1.418       .  A
C2349      C2350   1.415       .  A
C2349      C2352   1.449       .  S
C2350      C2354   1.451       .  S
C2351      N2358   1.157       .  T
C2352      N2359   1.157       .  T
C2353      N2357   1.157       .  T
C2354      N2360   1.157       .  T
C2355      N2364   1.157       .  T
C2356      N2362   1.157       .  T
C2365      C2366   1.409       .  A
C2365      C2370   1.414       .  A
C2365      C2383   1.452       .  S
C2366      C2371   1.506       .  S
C2366      C2367   1.408   1_545  A
C2367      C2368   1.416       .  A
C2367      C2372   1.451       .  S
C2368      C2369   1.424       .  A
C2368      C2384   1.449       .  S
C2369      C2370   1.425   1_565  A
C2370      C2373   1.450       .  S
C2371      C2374   1.408       .  A
C2371      C2378   1.409       .  A
C2372      N2389   1.157       .  T
C2373      N2391   1.157       .  T
C2374      C2375   1.412       .  A
C2374      C2379   1.452       .  S
C2375      C2376   1.423       .  A
C2375      C2381   1.450       .  S
C2376      C2377   1.423       .  A
C2377      C2378   1.417       .  A
C2377      C2380   1.449       .  S
C2378      C2382   1.451       .  S
C2379      N2386   1.157   1_545  T
C2380      N2387   1.157       .  T
C2381      N2385   1.157       .  T
C2382      N2388   1.157       .  T
C2383      N2392   1.157       .  T
C2384      N2390   1.157       .  T
C2393      C2394   1.408       .  A
C2393      C2398   1.409       .  A
C2393      C2411   1.452       .  S
C2394      C2399   1.497       .  S
C2394      C2395   1.411       .  A
C2395      C2396   1.413       .  A
C2395      C2400   1.450       .  S
C2396      C2397   1.416       .  A
C2396      C2412   1.451       .  S
C2397      C2398   1.420       .  A
C2398      C2401   1.451       .  S
C2399      C2402   1.411       .  A
C2399      C2406   1.411       .  A
C2400      N2417   1.157       .  T
C2401      N2419   1.157       .  T
C2402      C2403   1.409       .  A
C2402      C2407   1.452       .  S
C2403      C2404   1.413       .  A
C2403      C2409   1.450       .  S
C2404      C2405   1.414       .  A
C2405      C2406   1.413       .  A
C2405      C2408   1.450       .  S
C2406      C2410   1.450       .  S
C2407      N2414   1.157       .  T
C2408      N2415   1.157       .  T
C2409      N2413   1.157       .  T
C2410      N2416   1.157       .  T
C2411      N2420   1.157       .  T
C2412      N2418   1.157       .  T
C2421      C2422   1.410       .  A
C2421      C2426   1.413       .  A
C2421      C2439   1.451       .  S
C2422      C2427   1.500       .  S
C2422      C2423   1.409       .  A
C2423      C2424   1.410       .  A
C2423      C2428   1.453       .  S
C2424      C2425   1.422       .  A
C2424      C2440   1.451       .  S
C2425      C2426   1.422       .  A
C2426      C2429   1.452       .  S
C2427      C2430   1.413       .  A
C2427      C2434   1.414       .  A
C2428      N2445   1.157       .  T
C2429      N2447   1.158       .  T
C2430      C2431   1.410       .  A
C2430      C2435   1.451       .  S
C2431      C2432   1.411       .  A
C2431      C2437   1.451       .  S
C2432      C2433   1.411       .  A
C2433      C2434   1.411       .  A
C2433      C2436   1.451       .  S
C2434      C2438   1.450       .  S
C2435      N2442   1.157       .  T
C2436      N2443   1.157       .  T
C2437      N2441   1.157   1_545  T
C2438      N2444   1.157       .  T
C2439      N2448   1.157       .  T
C2440      N2446   1.157       .  T
C2449      C2450   1.414       .  A
C2449      C2454   1.413       .  A
C2449      C2467   1.450       .  S
C2450      C2455   1.506       .  S
C2450      C2451   1.412       .  A
C2451      C2452   1.414       .  A
C2451      C2456   1.450       .  S
C2452      C2453   1.416       .  A
C2452      C2468   1.451       .  S
C2453      C2454   1.413       .  A
C2454      C2457   1.451       .  S
C2455      C2458   1.412       .  A
C2455      C2462   1.411       .  A
C2456      N2473   1.157       .  T
C2457      N2475   1.157       .  T
C2458      C2459   1.416       .  A
C2458      C2463   1.451       .  S
C2459      C2460   1.420       .  A
C2459      C2465   1.450       .  S
C2460      C2461   1.418       .  A
C2461      C2462   1.413       .  A
C2461      C2464   1.449       .  S
C2462      C2466   1.451       .  S
C2463      N2470   1.157       .  T
C2464      N2471   1.157       .  T
C2465      N2469   1.157       .  T
C2466      N2472   1.157       .  T
C2467      N2476   1.157       .  T
C2468      N2474   1.157       .  T
C2477      C2478   1.412       .  A
C2477      C2482   1.412       .  A
C2477      C2495   1.451       .  S
C2478      C2483   1.503       .  S
C2478      C2479   1.413       .  A
C2479      C2480   1.413       .  A
C2479      C2484   1.450       .  S
C2480      C2481   1.414       .  A
C2480      C2496   1.451       .  S
C2481      C2482   1.414       .  A
C2482      C2485   1.451       .  S
C2483      C2486   1.410       .  A
C2483      C2490   1.410       .  A
C2484      N2501   1.157       .  T
C2485      N2503   1.157       .  T
C2486      C2487   1.412       .  A
C2486      C2491   1.453       .  S
C2487      C2488   1.421       .  A
C2487      C2493   1.450       .  S
C2488      C2489   1.421       .  A
C2489      C2490   1.414       .  A
C2489      C2492   1.451       .  S
C2490      C2494   1.451       .  S
C2491      N2498   1.157       .  T
C2492      N2499   1.157       .  T
C2493      N2497   1.157       .  T
C2494      N2500   1.157       .  T
C2495      N2504   1.157       .  T
C2496      N2502   1.157       .  T
C2505      C2506   1.411       .  A
C2505      C2510   1.414   1_655  A
C2505      C2523   1.450       .  S
C2506      C2511   1.500       .  S
C2506      C2507   1.410       .  A
C2507      C2508   1.412   1_655  A
C2507      C2512   1.451       .  S
C2508      C2509   1.417       .  A
C2508      C2524   1.450       .  S
C2509      C2510   1.418       .  A
C2510      C2513   1.451       .  S
C2511      C2514   1.411       .  A
C2511      C2518   1.412       .  A
C2512      N2529   1.157       .  T
C2513      N2531   1.157       .  T
C2514      C2515   1.412       .  A
C2514      C2519   1.451       .  S
C2515      C2516   1.416       .  A
C2515      C2521   1.452       .  S
C2516      C2517   1.415       .  A
C2517      C2518   1.413       .  A
C2517      C2520   1.450   1_545  S
C2518      C2522   1.450       .  S
C2519      N2526   1.157       .  T
C2520      N2527   1.157       .  T
C2521      N2525   1.157       .  T
C2522      N2528   1.157       .  T
C2523      N2532   1.157       .  T
C2524      N2530   1.157       .  T
C2533      C2534   1.408       .  A
C2533      C2538   1.406       .  A
C2533      C2551   1.452       .  S
C2534      C2539   1.497       .  S
C2534      C2535   1.413       .  A
C2535      C2536   1.415       .  A
C2535      C2540   1.450       .  S
C2536      C2537   1.415       .  A
C2536      C2552   1.451       .  S
C2537      C2538   1.418       .  A
C2538      C2541   1.451       .  S
C2539      C2542   1.413       .  A
C2539      C2546   1.411       .  A
C2540      N2557   1.157       .  T
C2541      N2559   1.157       .  T
C2542      C2543   1.409       .  A
C2542      C2547   1.452       .  S
C2543      C2544   1.413       .  A
C2543      C2549   1.451       .  S
C2544      C2545   1.412       .  A
C2545      C2546   1.412       .  A
C2545      C2548   1.450       .  S
C2546      C2550   1.449       .  S
C2547      N2554   1.157       .  T
C2548      N2555   1.157       .  T
C2549      N2553   1.157       .  T
C2550      N2556   1.157       .  T
C2551      N2560   1.157       .  T
C2552      N2558   1.157       .  T
C2561      C2562   1.414       .  A
C2561      C2566   1.415       .  A
C2561      C2579   1.450       .  S
C2562      C2567   1.507       .  S
C2562      C2563   1.413       .  A
C2563      C2564   1.412       .  A
C2563      C2568   1.451       .  S
C2564      C2565   1.416       .  A
C2564      C2580   1.451       .  S
C2565      C2566   1.415       .  A
C2566      C2569   1.451       .  S
C2567      C2570   1.411       .  A
C2567      C2574   1.413       .  A
C2568      N2585   1.157       .  T
C2569      N2587   1.157       .  T
C2570      C2571   1.413       .  A
C2570      C2575   1.451       .  S
C2571      C2572   1.417       .  A
C2571      C2577   1.450       .  S
C2572      C2573   1.420       .  A
C2573      C2574   1.416       .  A
C2573      C2576   1.451       .  S
C2574      C2578   1.451       .  S
C2575      N2582   1.157       .  T
C2576      N2583   1.157       .  T
C2577      N2581   1.157       .  T
C2578      N2584   1.157       .  T
C2579      N2588   1.157       .  T
C2580      N2586   1.157       .  T
C2589      C2590   1.408       .  A
C2589      C2594   1.416   1_565  A
C2589      C2607   1.451       .  S
C2590      C2595   1.502       .  S
C2590      C2591   1.408       .  A
C2591      C2592   1.413   1_565  A
C2591      C2596   1.452       .  S
C2592      C2593   1.425       .  A
C2592      C2608   1.451       .  S
C2593      C2594   1.427       .  A
C2594      C2597   1.451       .  S
C2595      C2598   1.412       .  A
C2595      C2602   1.411       .  A
C2596      N2613   1.157       .  T
C2597      N2615   1.158       .  T
C2598      C2599   1.413       .  A
C2598      C2603   1.450       .  S
C2599      C2600   1.413       .  A
C2599      C2605   1.450       .  S
C2600      C2601   1.412       .  A
C2601      C2602   1.414       .  A
C2601      C2604   1.449       .  S
C2602      C2606   1.450       .  S
C2603      N2610   1.157       .  T
C2604      N2611   1.157       .  T
C2605      N2609   1.157       .  T
C2606      N2612   1.157       .  T
C2607      N2616   1.157       .  T
C2608      N2614   1.157       .  T
C2617      C2618   1.412       .  A
C2617      C2622   1.416       .  A
C2617      C2635   1.450       .  S
C2618      C2623   1.506       .  S
C2618      C2619   1.411       .  A
C2619      C2620   1.414       .  A
C2619      C2624   1.450       .  S
C2620      C2621   1.417       .  A
C2620      C2636   1.450       .  S
C2621      C2622   1.416       .  A
C2622      C2625   1.450       .  S
C2623      C2626   1.411       .  A
C2623      C2630   1.409       .  A
C2624      N2641   1.157       .  T
C2625      N2643   1.157       .  T
C2626      C2627   1.418       .  A
C2626      C2631   1.450       .  S
C2627      C2628   1.420       .  A
C2627      C2633   1.450       .  S
C2628      C2629   1.421       .  A
C2629      C2630   1.414       .  A
C2629      C2632   1.450       .  S
C2630      C2634   1.452       .  S
C2631      N2638   1.157       .  T
C2632      N2639   1.157       .  T
C2633      N2637   1.157       .  T
C2634      N2640   1.157       .  T
C2635      N2644   1.157       .  T
C2636      N2642   1.157       .  T
C2645      C2646   1.414       .  A
C2645      C2650   1.412       .  A
C2645      C2663   1.450       .  S
C2646      C2651   1.501       .  S
C2646      C2647   1.413       .  A
C2647      C2648   1.409       .  A
C2647      C2652   1.451       .  S
C2648      C2649   1.411       .  A
C2648      C2664   1.451   1_455  S
C2649      C2650   1.411       .  A
C2650      C2653   1.451       .  S
C2651      C2654   1.410       .  A
C2651      C2658   1.409       .  A
C2652      N2669   1.157       .  T
C2653      N2671   1.157       .  T
C2654      C2655   1.410       .  A
C2654      C2659   1.453       .  S
C2655      C2656   1.419       .  A
C2655      C2661   1.449       .  S
C2656      C2657   1.422       .  A
C2657      C2658   1.415       .  A
C2657      C2660   1.449       .  S
C2658      C2662   1.452       .  S
C2659      N2666   1.157       .  T
C2660      N2667   1.157       .  T
C2661      N2665   1.156       .  T
C2662      N2668   1.157       .  T
C2663      N2672   1.157       .  T
C2664      N2670   1.157       .  T
C2673      C2674   1.413       .  A
C2673      C2678   1.413   1_455  A
C2673      C2691   1.451       .  S
C2674      C2679   1.501       .  S
C2674      C2675   1.411   1_455  A
C2675      C2676   1.410       .  A
C2675      C2680   1.451       .  S
C2676      C2677   1.414       .  A
C2676      C2692   1.450       .  S
C2677      C2678   1.416       .  A
C2678      C2681   1.451       .  S
C2679      C2682   1.411       .  A
C2679      C2686   1.411       .  A
C2680      N2697   1.157       .  T
C2681      N2699   1.157   1_655  T
C2682      C2683   1.413       .  A
C2682      C2687   1.451       .  S
C2683      C2684   1.416       .  A
C2683      C2689   1.449       .  S
C2684      C2685   1.416       .  A
C2685      C2686   1.411       .  A
C2685      C2688   1.451       .  S
C2686      C2690   1.451   1_455  S
C2687      N2694   1.157       .  T
C2688      N2695   1.157       .  T
C2689      N2693   1.157       .  T
C2690      N2696   1.157       .  T
C2691      N2700   1.157       .  T
C2692      N2698   1.157       .  T
