geometry optimzed in LAMMPS
_audit_creation_date              2020-12-01 
_audit_creation_method            'lammps2cif' 
_symmetry_space_group_name_H-M    'P1' 
_symmetry_Int_Tables_number       1 
_symmetry_cell_setting            triclinic 
loop_ 
_symmetry_equiv_pos_as_xyz 
  x,y,z 
_cell_length_a                    33.56675191 
_cell_length_b                    33.51633435686794 
_cell_length_c                    65.06736330878397 
_cell_angle_alpha                 89.98850249015956 
_cell_angle_beta                  90.01585463226426 
_cell_angle_gamma                 120.0414093615535 
loop_ 
_atom_site_label 
_atom_site_type_symbol 
_atom_site_fract_x 
_atom_site_fract_y 
_atom_site_fract_z 
_atom_site_charge 
O1          O  0.69275572  0.84089872  0.32926836    -0.80800
O2          O  0.71983452  0.81018085  0.42317380    -0.65500
O3          O  0.68732265  0.79415200  0.36626305    -1.12100
C4          C  0.56950202  0.82336167  0.38992230     1.06100
O5          O  0.64758972  0.76379306  0.43262487    -0.78700
O6          O  0.57536820  0.73195534  0.40633649    -0.66300
Ni7        Ni  0.73257689  0.82706318  0.34551686     1.34900
C8          C  0.57066274  0.71676778  0.38809928     0.84800
O9          O  0.75471102  0.79133194  0.39078648    -0.79200
O10         O  0.77797685  0.81658371  0.35873643    -0.89500
C11         C  0.69062873  0.78147146  0.43574715     0.84400
O12         O  0.75865959  0.88615172  0.35813635    -0.67700
O13         O  0.57793370  0.81419600  0.40791162    -0.87000
C14         C  0.76745296  0.89807466  0.37686412     0.85200
C15         C  0.78370927  0.80329361  0.37626650     1.06800
H16         H  0.67136448  0.85099426  0.39945579     0.38600
O17         O  0.65781303  0.81820958  0.39731318    -1.09600
O18         O  0.59450120  0.74162447  0.37304535    -0.66300
Ni19       Ni  0.63779464  0.80666993  0.36939467     1.26300
O20         O  0.75004227  0.86992849  0.39184694    -0.66500
O21         O  0.58929028  0.82066991  0.37361564    -0.78800
C22         C  0.64945357  0.81846971  0.32633431     0.84600
O23         O  0.62152981  0.79649912  0.34080413    -0.66000
Ni24       Ni  0.61452034  0.79000909  0.41907200     1.27400
Ni25       Ni  0.70608399  0.80439850  0.39444126     1.26100
H26         H  0.67470095  0.76172008  0.36344586     0.39200
O27         O  0.84640310  0.67623283  0.67014849    -0.80800
O28         O  0.80818241  0.70446088  0.57770733    -0.65500
O29         O  0.79627770  0.67229783  0.63454870    -1.12100
C30         C  0.81752063  0.54966820  0.61008838     1.06100
O31         O  0.76238402  0.63262419  0.56788820    -0.78700
O32         O  0.72932471  0.56050811  0.59444170    -0.66300
Ni33       Ni  0.83447078  0.71790507  0.65424874     1.34900
C34         C  0.71590504  0.55532214  0.61298458     0.84800
O35         O  0.78990388  0.73888961  0.61116160    -0.79200
O36         O  0.82578903  0.76497602  0.64129787    -0.89500
C37         C  0.78176563  0.67577817  0.56441249     0.84400
O38         O  0.89090542  0.73809197  0.64002047    -0.67700
O39         O  0.80888486  0.55881961  0.59213440    -0.87000
C40         C  0.89989255  0.74892257  0.62124094     0.85200
C41         C  0.80497778  0.76862515  0.62561723     1.06800
H42         H  0.84971837  0.65512920  0.60025587     0.38600
O43         O  0.81713837  0.64175734  0.60278373    -1.09600
O44         O  0.74139797  0.57982553  0.62772033    -0.66300
Ni45       Ni  0.80673136  0.62168156  0.63074675     1.26300
O46         O  0.86895598  0.73486649  0.60739585    -0.66500
O47         O  0.81831482  0.57164958  0.62624073    -0.78800
C48         C  0.82142372  0.63319111  0.67342720     0.84600
O49         O  0.79746218  0.60549177  0.65926323    -0.66000
Ni50       Ni  0.78702688  0.59790447  0.58125985     1.27400
Ni51       Ni  0.80359525  0.69044839  0.60634193     1.26100
H52         H  0.76459399  0.66089184  0.63842666     0.39200
O53         O  0.16602807  0.85271662  0.32870097    -0.80800
O54         O  0.19162079  0.90361158  0.42204007    -0.65500
O55         O  0.21240871  0.89261930  0.36532873    -1.12100
C56         C  0.18132367  0.74284408  0.38547506     1.06100
O57         O  0.23452260  0.87396783  0.43224947    -0.78700
O58         O  0.27062824  0.83885827  0.40513261    -0.66300
Ni59       Ni  0.18103840  0.90673564  0.34455012     1.34900
C60         C  0.28604737  0.84854033  0.38691142     0.84800
O61         O  0.21451888  0.96149180  0.39056940    -0.79200
O62         O  0.19320664  0.96270268  0.35802303    -0.89500
C63         C  0.21714775  0.89963501  0.43526850     0.84400
O64         O  0.12144914  0.87467365  0.35647867    -0.67700
O65         O  0.18982748  0.75831212  0.40383285    -0.87000
C66         C  0.10820991  0.86888240  0.37502906     0.85200
C67         C  0.20691710  0.98133069  0.37560572     1.06800
H68         H  0.15243339  0.81651978  0.39684097     0.38600
O69         O  0.18523165  0.83565098  0.39520720    -1.09600
O70         O  0.26267759  0.84973556  0.37176752    -0.66300
Ni71       Ni  0.19867474  0.82993852  0.36721594     1.26300
O72         O  0.13525981  0.87817204  0.39027662    -0.66500
O73         O  0.18316884  0.76668934  0.36984755    -0.78800
C74         C  0.19285542  0.83745362  0.32456576     0.84600
O75         O  0.21216495  0.82753792  0.33880797    -0.66000
Ni76       Ni  0.21119413  0.81723137  0.41677712     1.27400
Ni77       Ni  0.20013916  0.89864810  0.39342588     1.26100
H78         H  0.24501608  0.91237571  0.36300528     0.39200
O79         O  0.31715088  0.13755034  0.67445223    -0.80800
O80         O  0.28157228  0.08097055  0.58051884    -0.65500
O81         O  0.31872709  0.09775004  0.63671765    -1.12100
C82         C  0.43339909  0.24595070  0.61221588     1.06100
O83         O  0.35286434  0.10861524  0.56974757    -0.78700
O84         O  0.42720634  0.14944234  0.59437064    -0.66300
Ni85       Ni  0.27392803  0.08795352  0.65716630     1.34900
C86         C  0.43279384  0.13748583  0.61215920     0.84800
O87         O  0.25180161  0.02578984  0.61314365    -0.79200
O88         O  0.22519517  0.03512650  0.64305699    -0.89500
C89         C  0.30970140  0.08383534  0.56684831     0.84400
O90         O  0.25631139  0.12858344  0.64496710    -0.67700
O91         O  0.42309966  0.22875242  0.59418324    -0.87000
C92         C  0.24204005  0.12632018  0.62672253     0.85200
C93         C  0.22123250  0.01122165  0.62713879     1.06800
H94         H  0.33028367  0.17018469  0.60426987     0.38600
O95         O  0.34473353  0.15161417  0.60569258    -1.09600
O96         O  0.41028059  0.13796373  0.62783385    -0.66300
Ni97       Ni  0.36781613  0.15997391  0.63309944     1.26300
O98         O  0.25201162  0.10729641  0.61220439    -0.66500
O99         O  0.41584796  0.22274660  0.62862541    -0.78800
C100        C  0.36066848  0.15735304  0.67643131     0.84600
O101        O  0.38722587  0.16560568  0.66115314    -0.66000
Ni102      Ni  0.38632701  0.16786196  0.58313712     1.27400
Ni103      Ni  0.29803235  0.08866027  0.60885905     1.26100
H104        H  0.33104440  0.07776190  0.63967715     0.39200
O105        O  0.14751195  0.30496135  0.32987321    -0.80800
O106        O  0.10135931  0.28273289  0.42314500    -0.65500
O107        O  0.10944215  0.31491822  0.36654834    -1.12100
C108        C  0.25827041  0.43614731  0.38559829     1.06100
O109        O  0.12831517  0.35483468  0.43311334    -0.78700
O110        O  0.15841908  0.42422123  0.40530263    -0.66300
Ni111      Ni  0.09189511  0.26915156  0.34556858     1.34900
C112        C  0.15063174  0.43102559  0.38690253     0.84800
O113        O  0.04190495  0.24839523  0.39240133    -0.79200
O114        O  0.03421431  0.22892312  0.35900389    -0.89500
C115        C  0.10525764  0.31167468  0.43665961     0.84400
O116        O  0.11827144  0.23546624  0.35721157    -0.67700
O117        O  0.24199280  0.43016126  0.40379663    -0.87000
C118        C  0.12836916  0.23068606  0.37548936     0.85200
C119        C  0.01869326  0.22316722  0.37732910     1.06800
H120        H  0.18685779  0.33176137  0.39785905     0.38600
O121        O  0.16741685  0.34512348  0.39600058    -1.09600
O122        O  0.15338194  0.40842349  0.37180292    -0.66300
Ni123      Ni  0.17242795  0.36332509  0.36785120     1.26300
O124        O  0.12519054  0.25266168  0.39074969    -0.66500
O125        O  0.23582497  0.41136632  0.37021317    -0.78800
C126        C  0.16630866  0.34746664  0.32535655     0.84600
O127        O  0.17450801  0.37733811  0.33917373    -0.66000
Ni128      Ni  0.18413217  0.39021711  0.41716476     1.27400
Ni129      Ni  0.10468904  0.29673797  0.39460613     1.26100
H130        H  0.09016915  0.32848321  0.36474539     0.39200
O131        O  0.85276729  0.15445211  0.67262890    -0.80800
O132        O  0.91138987  0.18077916  0.57811792    -0.65500
O133        O  0.88906874  0.19527990  0.63432118    -1.12100
C134        C  0.74223812  0.16353500  0.60923903     1.06100
O135        O  0.87997339  0.22059047  0.56599345    -0.78700
O136        O  0.84399222  0.25564912  0.59281352    -0.66300
Ni137      Ni  0.90073029  0.16038183  0.65435707     1.34900
C138        C  0.84899858  0.26873291  0.61141685     0.84800
O139        O  0.96411301  0.20534823  0.61144089    -0.79200
O140        O  0.95294522  0.16423063  0.63984695    -0.89500
C141        C  0.90778812  0.20542746  0.56433612     0.84400
O142        O  0.85995677  0.10275470  0.64158908    -0.67700
O143        O  0.76144300  0.17557205  0.59165217    -0.87000
C144        C  0.86436849  0.09203975  0.62332769     0.85200
C145        C  0.97761734  0.18641808  0.62446306     1.06800
H146        H  0.82010624  0.13585575  0.59973790     0.38600
O147        O  0.83746329  0.16865075  0.60226112    -1.09600
O148        O  0.84343494  0.24232952  0.62655494    -0.66300
Ni149      Ni  0.82576944  0.17832755  0.63007639     1.26300
O150        O  0.88328533  0.12208510  0.60910958    -0.66500
O151        O  0.76254067  0.16058172  0.62522983    -0.78800
C152        C  0.82762041  0.17285615  0.67386350     0.84600
O153        O  0.81632545  0.18756748  0.65822819    -0.66000
Ni154      Ni  0.82188498  0.19677948  0.58034678     1.27400
Ni155      Ni  0.90080507  0.18680055  0.60639865     1.26100
H156        H  0.90719082  0.22758763  0.63778357     0.39200
O157        O  0.15417599  0.30442659  0.17263760    -0.80800
O158        O  0.19018954  0.27890532  0.07829760    -0.65500
O159        O  0.19920177  0.31018869  0.13534798    -1.12100
C160        C  0.17094522  0.42756356  0.10975618     1.06100
O161        O  0.23631016  0.35161768  0.06936325    -0.78700
O162        O  0.26453703  0.42380009  0.09601007    -0.66300
Ni163      Ni  0.15950395  0.26266882  0.15405562     1.34900
C164        C  0.27598886  0.42947679  0.11484267     0.84800
O165        O  0.20768135  0.24464591  0.11202724    -0.79200
O166        O  0.16149485  0.21389489  0.13906968    -0.89500
C167        C  0.21672369  0.30871635  0.06532909     0.84400
O168        O  0.10554144  0.25233374  0.13984214    -0.67700
O169        O  0.18291974  0.42052944  0.09210970    -0.87000
C170        C  0.09626267  0.23868428  0.12135211     0.85200
C171        C  0.18540309  0.21145107  0.12445230     1.06800
H172        H  0.14574915  0.32554104  0.10002716     0.38600
O173        O  0.17810316  0.33964683  0.10312545    -1.09600
O174        O  0.24994404  0.40383182  0.12916955    -0.66300
Ni175      Ni  0.18532335  0.35873780  0.13111167     1.26300
O176        O  0.12751595  0.24706455  0.10805495    -0.66500
O177        O  0.17009592  0.40590810  0.12601918    -0.78800
C178        C  0.17281418  0.34788491  0.17446934     0.84600
O179        O  0.19181256  0.37532460  0.15954722    -0.66000
Ni180      Ni  0.20847915  0.38420227  0.08192283     1.27400
Ni181      Ni  0.19315497  0.29229533  0.10702121     1.26100
H182        H  0.23077179  0.32265682  0.13967102     0.39200
O183        O  0.31872589  0.16187250  0.82826086    -0.80800
O184        O  0.28438932  0.18853304  0.92170240    -0.65500
O185        O  0.32059067  0.20586332  0.86516461    -1.12100
C186        C  0.43124981  0.16630422  0.88949774     1.06100
O187        O  0.35673992  0.22929115  0.93161916    -0.78700
O188        O  0.43175511  0.25682641  0.90746602    -0.66300
Ni189      Ni  0.27608759  0.17117464  0.84458241     1.34900
C190        C  0.43832357  0.27599645  0.88997967     0.84800
O191        O  0.25384684  0.21259749  0.88842719    -0.79200
O192        O  0.22870060  0.17832023  0.85798608    -0.89500
C193        C  0.31411856  0.21345465  0.93509762     0.84400
O194        O  0.25512806  0.11264152  0.85734433    -0.67700
O195        O  0.41940515  0.17052937  0.90768061    -0.87000
C196        C  0.24106690  0.10141414  0.87568303     0.85200
C197        C  0.22409734  0.19766724  0.87396031     1.06800
H198        H  0.32951510  0.14360069  0.89718342     0.38600
O199        O  0.34510568  0.17677676  0.89607193    -1.09600
O200        O  0.41268411  0.25558591  0.87457759    -0.66300
Ni201      Ni  0.36881069  0.19155934  0.86882393     1.26300
O202        O  0.25260187  0.13082335  0.89013855    -0.66500
O203        O  0.41578034  0.17529503  0.87324390    -0.78800
C204        C  0.36173658  0.18842181  0.82571055     0.84600
O205        O  0.38879331  0.20617903  0.84086865    -0.66000
Ni206      Ni  0.38643735  0.19905466  0.91865779     1.27400
Ni207      Ni  0.29977259  0.19519676  0.89304123     1.26100
H208        H  0.33365411  0.23824769  0.86207515     0.39200
O209        O  0.12618245  0.81602784  0.17437571    -0.80800
O210        O  0.08430462  0.80420310  0.07844603    -0.65500
O211        O  0.09493714  0.78118471  0.13497008    -1.12100
C212        C  0.24627916  0.81655417  0.11372832     1.06100
O213        O  0.11337303  0.76085515  0.06901696    -0.78700
O214        O  0.15499269  0.72872814  0.09426500    -0.66300
Ni215      Ni  0.08219317  0.81479890  0.15504752     1.34900
C216        C  0.14339031  0.71126373  0.11207631     0.84800
O217        O  0.02533518  0.77755512  0.10990850    -0.79200
O218        O  0.03373234  0.81529515  0.13913484    -0.89500
C219        C  0.08829902  0.77849914  0.06527978     0.84400
O220        O  0.12703695  0.87307694  0.14416905    -0.67700
O221        O  0.23184545  0.81229647  0.09524367    -0.87000
C222        C  0.12566674  0.88663111  0.12609788     0.85200
C223        C  0.01071381  0.79542493  0.12300594     1.06800
H224        H  0.17060368  0.84450747  0.10404587     0.38600
O225        O  0.15223384  0.81136979  0.10515838    -1.09600
O226        O  0.13815788  0.73220329  0.12720475    -0.66300
Ni227      Ni  0.15808883  0.79599152  0.13263108     1.26300
O228        O  0.10706504  0.85879517  0.11109952    -0.66500
O229        O  0.22150343  0.81158803  0.12949034    -0.78800
C230        C  0.15018722  0.79645738  0.17594112     0.84600
O231        O  0.16176877  0.78136426  0.16057630    -0.66000
Ni232      Ni  0.17170824  0.78770344  0.08313375     1.27400
Ni233      Ni  0.08881642  0.79434082  0.10698052     1.26100
H234        H  0.07514810  0.74860868  0.13747807     0.39200
O235        O  0.85995040  0.68701806  0.82604131    -0.80800
O236        O  0.90925651  0.71784176  0.92072736    -0.65500
O237        O  0.89576632  0.68222974  0.86445544    -1.12100
C238        C  0.74410181  0.56938230  0.88659870     1.06100
O239        O  0.87760664  0.64578705  0.93157056    -0.78700
O240        O  0.83712466  0.57222347  0.90613044    -0.66300
Ni241      Ni  0.90909647  0.72827409  0.84407112     1.34900
C242        C  0.85052513  0.56695942  0.88860777     0.84800
O243        O  0.96734460  0.74667702  0.88910577    -0.79200
O244        O  0.96201567  0.77515004  0.85885777    -0.89500
C245        C  0.90254619  0.68888273  0.93470862     0.84400
O246        O  0.86958665  0.74793216  0.85564143    -0.67700
O247        O  0.75953587  0.57928751  0.90491673    -0.87000
C248        C  0.86981684  0.76073830  0.87400552     0.85200
C249        C  0.98445332  0.77703522  0.87501861     1.06800
H250        H  0.82204045  0.67239146  0.89570462     0.38600
O251        O  0.83962132  0.65682869  0.89465946    -1.09600
O252        O  0.85243068  0.59056656  0.87290570    -0.66300
Ni253      Ni  0.83265157  0.63450312  0.86717750     1.26300
O254        O  0.88729781  0.74970650  0.88877839    -0.66500
O255        O  0.76910820  0.58718516  0.87066458    -0.78800
C256        C  0.83654720  0.64339803  0.82403149     0.84600
O257        O  0.82816204  0.61609829  0.83905100    -0.66000
Ni258      Ni  0.81966247  0.61420912  0.91701004     1.27400
Ni259      Ni  0.90345400  0.70202248  0.89241971     1.26100
H260        H  0.91496944  0.66887390  0.86184574     0.39200
O261        O  0.68254668  0.85124375  0.17225349    -0.80800
O262        O  0.70594718  0.90477222  0.07728751    -0.65500
O263        O  0.67640926  0.88993434  0.13457549    -1.12100
C264        C  0.55694843  0.74149986  0.11258712     1.06100
O265        O  0.63352661  0.87708625  0.06814851    -0.78700
O266        O  0.56239539  0.83826030  0.09520026    -0.66300
Ni267      Ni  0.72377648  0.89938210  0.15365759     1.34900
C268        C  0.55839301  0.84933383  0.11343709     0.84800
O269        O  0.74122793  0.96058646  0.10955832    -0.79200
O270        O  0.77132918  0.95099667  0.13841751    -0.89500
C271        C  0.67634666  0.90184466  0.06432410     0.84400
O272        O  0.73765810  0.85698797  0.14041166    -0.67700
O273        O  0.56464722  0.75807966  0.09438460    -0.87000
C274        C  0.74905496  0.85799958  0.12173259     0.85200
C275        C  0.77375819  0.97463583  0.12258500     1.06800
H276        H  0.65918859  0.81620546  0.10174573     0.38600
O277        O  0.64544418  0.83523682  0.10383923    -1.09600
O278        O  0.58306869  0.84932251  0.12834232    -0.66300
Ni279      Ni  0.62645637  0.82780020  0.13192868     1.26300
O280        O  0.73845985  0.87779530  0.10778467    -0.66500
O281        O  0.57764315  0.76514568  0.12848664    -0.78800
C282        C  0.63919282  0.82994312  0.17506705     0.84600
O283        O  0.61103871  0.82275981  0.16056273    -0.66000
Ni284      Ni  0.60092368  0.81851903  0.08248301     1.27400
Ni285      Ni  0.69334153  0.89798238  0.10611292     1.26100
H286        H  0.66484769  0.91027187  0.13814608     0.39200
O287        O  0.84208123  0.15188880  0.82744297    -0.80800
O288        O  0.80935225  0.09073144  0.92133976    -0.65500
O289        O  0.79635837  0.11010997  0.86444078    -1.12100
C290        C  0.82208645  0.25622766  0.88819181     1.06100
O291        O  0.76589656  0.11967074  0.93155027    -0.78700
O292        O  0.73232519  0.15757042  0.90463366    -0.66300
Ni293      Ni  0.83338768  0.10116689  0.84469636     1.34900
C294        C  0.71843476  0.14898252  0.88613923     0.84800
O295        O  0.78970065  0.03723961  0.88819114    -0.79200
O296        O  0.82719063  0.04745013  0.85862124    -0.89500
C297        C  0.78400411  0.09473341  0.93468343     0.84400
O298        O  0.89046512  0.14004310  0.85829981    -0.67700
O299        O  0.81304723  0.23868010  0.90615991    -0.87000
C300        C  0.90032488  0.13712443  0.87689450     0.85200
C301        C  0.80682067  0.02322931  0.87442479     1.06800
H302        H  0.85221709  0.18153279  0.89828020     0.38600
O303        O  0.81950453  0.16275491  0.89593480    -1.09600
O304        O  0.74369024  0.15001892  0.87132228    -0.66300
Ni305      Ni  0.80862102  0.17205532  0.86794775     1.26300
O306        O  0.86980701  0.11978284  0.89096490    -0.66500
O307        O  0.82220340  0.23451502  0.87211243    -0.78800
C308        C  0.81699859  0.16998440  0.82464182     0.84600
O309        O  0.79795261  0.17833500  0.83955594    -0.66000
Ni310      Ni  0.79063276  0.17815229  0.91747712     1.27400
Ni311      Ni  0.80452619  0.09987895  0.89265456     1.26100
H312        H  0.76443525  0.09018969  0.86079344     0.39200
C313        C  0.68161533  0.96608204  0.01447749    -0.22400
C314        C  0.72735238  0.98304994  0.00848639     0.09600
C315        C  0.75612108  0.97318395  0.02064014     0.10000
C316        C  0.73835907  0.94637086  0.03852260    -0.17300
C317        C  0.69236297  0.92917742  0.04476821    -0.27700
C318        C  0.66361868  0.93938460  0.03236719     0.18300
C319        C  0.74410027  0.01132131  0.98944813     0.12300
C320        C  0.80543811  0.99058684  0.01461103    -0.12100
H321        H  0.76067984  0.93863392  0.04761720     0.12600
C322        C  0.61429823  0.92359737  0.03788622    -0.22900
H323        H  0.65988316  0.97408870  0.00505533     0.08200
C324        C  0.73250412  0.99090399  0.96976709     0.04600
C325        C  0.74650767  0.01916426  0.95224011    -0.20100
C326        C  0.77240543  0.06727825  0.95381857    -0.12400
C327        C  0.78424245  0.08779353  0.97354748     0.13300
C328        C  0.76989520  0.05950423  0.99110663    -0.22800
C329        C  0.70524885  0.93933150  0.96725347    -0.05900
H330        H  0.73577745  0.00376329  0.93721766     0.14800
C331        C  0.81204796  0.13920105  0.97667575    -0.16100
H332        H  0.77851934  0.07516909  0.00623107     0.09100
H333        H  0.59365207  0.88539567  0.03770471     0.07000
H334        H  0.59807274  0.93641832  0.02681645     0.08200
H335        H  0.61281810  0.93695217  0.05329386     0.07200
H336        H  0.82449530  0.02883224  0.01423447     0.02100
H337        H  0.80672651  0.97723099  0.99915640     0.02600
H338        H  0.82312900  0.97934077  0.02564433     0.06100
H339        H  0.69989358  0.92910526  0.95080034     0.05100
H340        H  0.67095391  0.92543410  0.97455720    -0.00700
H341        H  0.72393768  0.92357415  0.97460548     0.00800
H342        H  0.79136748  0.15085805  0.98546014     0.04400
H343        H  0.82296088  0.15876562  0.96206555     0.06400
H344        H  0.84360596  0.14784464  0.98556404     0.07300
C345        C  0.79655800  0.81793483  0.87201726    -0.22400
C346        C  0.82708450  0.86132591  0.88038364     0.09600
C347        C  0.86938784  0.86937527  0.88870868     0.10000
C348        C  0.88097010  0.83451844  0.88763669    -0.17300
C349        C  0.85173210  0.79217977  0.87804716    -0.27700
C350        C  0.80833391  0.78326054  0.87069909     0.18300
C351        C  0.81621205  0.89915573  0.87859930     0.12300
C352        C  0.90337713  0.91550399  0.89775827    -0.12100
H353        H  0.91419348  0.84130431  0.89327850     0.12600
C354        C  0.77356571  0.73760515  0.86150433    -0.22900
H355        H  0.76376426  0.81149882  0.86596090     0.08200
C356        C  0.81902034  0.92032650  0.85950347     0.04600
C357        C  0.81354805  0.95912692  0.85869482    -0.20100
C358        C  0.80534991  0.97790812  0.87649361    -0.12400
C359        C  0.80013259  0.95492280  0.89551554     0.13300
C360        C  0.80572802  0.91598334  0.89628296    -0.22800
C361        C  0.82946629  0.90307869  0.83998183    -0.05900
H362        H  0.81676648  0.97551251  0.84395189     0.14800
C363        C  0.78916368  0.97107968  0.91511263    -0.16100
H364        H  0.80285513  0.89903351  0.91084719     0.09100
H365        H  0.76758214  0.74253545  0.84515179     0.07000
H366        H  0.74056667  0.72364319  0.87000540     0.08200
H367        H  0.78432343  0.71132012  0.86232789     0.07200
H368        H  0.88799379  0.92290507  0.91128024     0.02100
H369        H  0.91292020  0.94298929  0.88607703     0.02600
H370        H  0.93537362  0.91641906  0.90291364     0.06100
H371        H  0.83208590  0.92464831  0.82652178     0.05100
H372        H  0.80164128  0.86734811  0.83675561    -0.00700
H373        H  0.86269693  0.90367722  0.84156245     0.00800
H374        H  0.75529485  0.96884314  0.91331362     0.04400
H375        H  0.81630835  0.00701135  0.91856373     0.06400
H376        H  0.78675065  0.94930080  0.92845977     0.07300
C377        C  0.87859120  0.47261777  0.90076626    -0.22400
C378        C  0.86018120  0.44443845  0.88343148     0.09600
C379        C  0.84509552  0.46007913  0.86664937     0.10000
C380        C  0.84578910  0.50224155  0.86815225    -0.17300
C381        C  0.86111282  0.52912244  0.88611599    -0.27700
C382        C  0.88022622  0.51524843  0.90216522     0.18300
C383        C  0.85175653  0.39657966  0.88417083     0.12300
C384        C  0.82660698  0.43135736  0.84748138    -0.12100
H385        H  0.83164417  0.51280636  0.85570181     0.12600
C386        C  0.90309437  0.54452595  0.92083662    -0.22900
H387        H  0.89096078  0.46083782  0.91347761     0.08200
C388        C  0.88481949  0.38488381  0.87782214     0.04600
C389        C  0.87400069  0.33850414  0.87870346    -0.20100
C390        C  0.83109621  0.30394635  0.88606794    -0.12400
C391        C  0.79786874  0.31588744  0.89216023     0.13300
C392        C  0.80884679  0.36203721  0.89126718    -0.22800
C393        C  0.93145131  0.42138083  0.87036747    -0.05900
H394        H  0.89940211  0.32932711  0.87407971     0.14800
C395        C  0.75000315  0.28091216  0.89917260    -0.16100
H396        H  0.78341581  0.37116749  0.89594915     0.09100
H397        H  0.93800382  0.54898268  0.92262595     0.07000
H398        H  0.88256715  0.52724285  0.93476939     0.08200
H399        H  0.90780142  0.57959509  0.91969311     0.07200
H400        H  0.79600340  0.39762190  0.85128958     0.02100
H401        H  0.85344935  0.42542359  0.84059421     0.02600
H402        H  0.81623584  0.44858264  0.83579541     0.06100
H403        H  0.95329250  0.40649475  0.86599910     0.05100
H404        H  0.94934847  0.44715032  0.88271442    -0.00700
H405        H  0.92760867  0.43900076  0.85670593     0.00800
H406        H  0.74504405  0.28812846  0.91533375     0.04400
H407        H  0.74270139  0.24492383  0.89819275     0.06400
H408        H  0.72427873  0.28344364  0.88936460     0.07300
C409        C  0.93445860  0.70185499  0.99142025    -0.22400
C410        C  0.98099075  0.73575574  0.99045686     0.09600
C411        C  0.00112266  0.75547607  0.97138992     0.10000
C412        C  0.97408674  0.74043083  0.95356138    -0.17300
C413        C  0.92759901  0.70560981  0.95434991    -0.27700
C414        C  0.90722705  0.68676943  0.97365163     0.18300
C415        C  0.00864750  0.74769758  0.00945851     0.12300
C416        C  0.05133792  0.79144581  0.96981343    -0.12100
H417        H  0.98975917  0.75485467  0.93882460     0.12600
C418        C  0.85690102  0.65185462  0.97635228    -0.22900
H419        H  0.91929323  0.68702546  0.00619111     0.08200
C420        C  0.01415267  0.78368886  0.02243700     0.04600
C421        C  0.04120879  0.79354070  0.04019219    -0.20100
C422        C  0.06154584  0.76711156  0.04573545    -0.12400
C423        C  0.05481722  0.73009299  0.03269434     0.13300
C424        C  0.02883519  0.72139078  0.01467368    -0.22800
C425        C  0.99097934  0.81119700  0.01767595    -0.05900
H426        H  0.04640913  0.82214531  0.04977892     0.14800
C427        C  0.07368175  0.69865509  0.03754393    -0.16100
H428        H  0.02374447  0.69347102  0.00458148     0.09100
H429        H  0.84164967  0.66487664  0.98782227     0.07000
H430        H  0.85320808  0.61895051  0.98207123     0.08200
H431        H  0.83650552  0.64497076  0.96210289     0.07200
H432        H  0.07275398  0.77707590  0.97551102     0.02100
H433        H  0.05853526  0.82200072  0.97918172     0.02600
H434        H  0.06160304  0.80299277  0.95370118     0.06100
H435        H  0.99848196  0.83785110  0.02955633     0.05100
H436        H  0.95312038  0.78786504  0.01707151    -0.00700
H437        H  0.00305831  0.82872940  0.00261842     0.00800
H438        H  0.06053056  0.68180249  0.05267190     0.04400
H439        H  0.11186280  0.71853939  0.03762113     0.06400
H440        H  0.06314359  0.67085499  0.02593256     0.07300
C441        C  0.80594179  0.78443293  0.12256373    -0.22400
C442        C  0.84852819  0.81467805  0.11345847     0.09600
C443        C  0.85502885  0.85575050  0.10427001     0.10000
C444        C  0.82008032  0.86712578  0.10575167    -0.17300
C445        C  0.77905787  0.83876374  0.11645448    -0.27700
C446        C  0.77107839  0.79585790  0.12414801     0.18300
C447        C  0.88745143  0.80557646  0.11595261     0.12300
C448        C  0.89976000  0.88888616  0.09392855    -0.12100
H449        H  0.82609650  0.89983946  0.09970342     0.12600
C450        C  0.72630562  0.76137077  0.13408401    -0.22900
H451        H  0.80050902  0.75239499  0.12918548     0.08200
C452        C  0.90862847  0.81090570  0.13527696     0.04600
C453        C  0.94706668  0.80512161  0.13700267    -0.20100
C454        C  0.96636323  0.79535445  0.11983146    -0.12400
C455        C  0.94476476  0.78973070  0.10040394     0.13300
C456        C  0.90529133  0.79432070  0.09881727    -0.22800
C457        C  0.89193322  0.82463370  0.15405354    -0.05900
H458        H  0.96283933  0.80947478  0.15198110     0.14800
C459        C  0.96413253  0.78133078  0.08109603    -0.16100
H460        H  0.88895753  0.79041058  0.08400460     0.09100
H461        H  0.73244022  0.75650800  0.15042365     0.07000
H462        H  0.71204721  0.72780979  0.12598202     0.08200
H463        H  0.69976840  0.77178227  0.13339999     0.07200
H464        H  0.90570319  0.87188185  0.08059871     0.02100
H465        H  0.92865903  0.90024152  0.10498017     0.02600
H466        H  0.89959553  0.92000895  0.08817460     0.06100
H467        H  0.91374533  0.82941162  0.16770998     0.05100
H468        H  0.85628057  0.79753930  0.15785338    -0.00700
H469        H  0.89274757  0.85768276  0.15113652     0.00800
H470        H  0.96378719  0.74812046  0.08221272     0.04400
H471        H  0.99984273  0.81004519  0.07886012     0.06400
H472        H  0.94392709  0.77968731  0.06727327     0.07300
C473        C  0.35263661  0.80397605  0.11193754    -0.22400
C474        C  0.38602538  0.84549236  0.12074747     0.09600
C475        C  0.37305273  0.87697801  0.12815200     0.10000
C476        C  0.32690423  0.86644302  0.12620352    -0.17300
C477        C  0.29372901  0.82529154  0.11684115    -0.27700
C478        C  0.30671584  0.79320030  0.11005910     0.18300
C479        C  0.43422331  0.85466406  0.12156709     0.12300
C480        C  0.40791222  0.92151838  0.13804070    -0.12100
H481        H  0.31689298  0.89075821  0.13160289     0.12600
C482        C  0.27308138  0.74669797  0.10118240    -0.22900
H483        H  0.36254672  0.77957715  0.10650545     0.08200
C484        C  0.44825479  0.83361341  0.13647502     0.04600
C485        C  0.49115867  0.83606602  0.13442524    -0.20100
C486        C  0.52027504  0.85872321  0.11766842    -0.12400
C487        C  0.50770462  0.88304661  0.10370440     0.13300
C488        C  0.46463449  0.88021718  0.10570221    -0.22800
C489        C  0.41722932  0.80726954  0.15416171    -0.05900
H490        H  0.50059439  0.81756548  0.14522909     0.14800
C491        C  0.53887036  0.91242223  0.08661117    -0.16100
H492        H  0.45412409  0.89696915  0.09442723     0.09100
H493        H  0.27379222  0.71920573  0.11043319     0.07000
H494        H  0.28299749  0.74445042  0.08513303     0.08200
H495        H  0.23721655  0.73957153  0.10114540     0.07200
H496        H  0.43573342  0.94243644  0.12691497     0.02100
H497        H  0.42303084  0.91415419  0.15169325     0.02600
H498        H  0.39216642  0.94216369  0.14311946     0.06100
H499        H  0.43350549  0.79320393  0.16453353     0.05100
H500        H  0.38461392  0.77797128  0.14829878    -0.00700
H501        H  0.40937612  0.83047342  0.16329037     0.00800
H502        H  0.52289898  0.89753466  0.07151914     0.04400
H503        H  0.57341593  0.91583483  0.08730171     0.06400
H504        H  0.54402282  0.94775743  0.08780247     0.07300
C505        C  0.52643035  0.39721210  0.87022894    -0.22400
C506        C  0.56179896  0.41014472  0.88470315     0.09600
C507        C  0.55579065  0.37996448  0.90101794     0.10000
C508        C  0.51500579  0.33731463  0.90233013    -0.17300
C509        C  0.47941224  0.32337211  0.88771968    -0.27700
C510        C  0.48532275  0.35423683  0.87145915     0.18300
C511        C  0.60594847  0.45438502  0.88231420     0.12300
C512        C  0.59297541  0.39232324  0.91687257    -0.12100
H513        H  0.51152908  0.31425262  0.91475327     0.12600
C514        C  0.44866450  0.34276439  0.85546845    -0.22900
H515        H  0.53133079  0.42069867  0.85776455     0.08200
C516        C  0.64075780  0.45805521  0.86894280     0.04600
C517        C  0.68474299  0.49756821  0.86969603    -0.20100
C518        C  0.69512007  0.53308270  0.88387446    -0.12400
C519        C  0.65937914  0.53054099  0.89642400     0.13300
C520        C  0.61518438  0.49133513  0.89536240    -0.22800
C521        C  0.63209554  0.41926566  0.85459714    -0.05900
H522        H  0.71191319  0.49945180  0.86001339     0.14800
C523        C  0.66744859  0.56899003  0.91090853    -0.16100
H524        H  0.58817426  0.48848205  0.90544688     0.09100
H525        H  0.44367230  0.31290121  0.84613043     0.07000
H526        H  0.45818490  0.37197656  0.84474906     0.08200
H527        H  0.41583805  0.33472555  0.86304980     0.07200
H528        H  0.59947417  0.42382440  0.92528644     0.02100
H529        H  0.62520603  0.39866521  0.90922951     0.02600
H530        H  0.58321851  0.36435978  0.92832617     0.06100
H531        H  0.66314546  0.42733691  0.84542363     0.05100
H532        H  0.60394088  0.41287551  0.84377451    -0.00700
H533        H  0.62212408  0.38743321  0.86356440     0.00800
H534        H  0.68179967  0.60194482  0.90229819     0.04400
H535        H  0.63500753  0.56258512  0.91837407     0.06400
H536        H  0.69159212  0.57227429  0.92329870     0.07300
C537        C  0.09803468  0.88561627  0.86346752    -0.22400
C538        C  0.10932483  0.90699076  0.88276770     0.09600
C539        C  0.08326383  0.88228062  0.90010358     0.10000
C540        C  0.04430190  0.83823594  0.89742016    -0.17300
C541        C  0.03108646  0.81813669  0.87779925    -0.27700
C542        C  0.06030866  0.84109580  0.86085020     0.18300
C543        C  0.14528166  0.95666300  0.88379795     0.12300
C544        C  0.09625486  0.90256556  0.92135694    -0.12100
H545        H  0.02281150  0.82054763  0.91055785     0.12600
C546        C  0.05338210  0.81971176  0.83981345    -0.22900
H547        H  0.11843151  0.90419413  0.85018830     0.08200
C548        C  0.19214071  0.97241993  0.87950284     0.04600
C549        C  0.22308344  0.02006131  0.87757475    -0.20100
C550        C  0.20837347  0.05229172  0.88008362    -0.12400
C551        C  0.16175424  0.03650446  0.88512459     0.13300
C552        C  0.13096532  0.98899122  0.88687810    -0.22800
C553        C  0.20950929  0.93907399  0.87700772    -0.05900
H554        H  0.25880665  0.03223336  0.87378215     0.14800
C555        C  0.14247154  0.06830838  0.88774280    -0.16100
H556        H  0.09490989  0.97693697  0.88987456     0.09100
H557        H  0.08595265  0.82186837  0.83466085     0.07000
H558        H  0.04391261  0.83875221  0.82871450     0.08200
H559        H  0.02684863  0.78270164  0.83953706     0.07200
H560        H  0.09423851  0.93453958  0.92235936     0.02100
H561        H  0.13192391  0.91073456  0.92489577     0.02600
H562        H  0.07301194  0.87824017  0.93323484     0.06100
H563        H  0.24729133  0.95725077  0.87443704     0.05100
H564        H  0.19271879  0.91617891  0.86364437    -0.00700
H565        H  0.20181950  0.91781225  0.89111633     0.00800
H566        H  0.11476147  0.05949545  0.87627897     0.04400
H567        H  0.16840845  0.10505173  0.88568564     0.06400
H568        H  0.12774452  0.06403712  0.90340471     0.07300
C569        C  0.61712013  0.15998457  0.86689716    -0.22400
C570        C  0.58291552  0.13137470  0.88084723     0.09600
C571        C  0.59145399  0.10371753  0.89443988     0.10000
C572        C  0.63527508  0.10786807  0.89479021    -0.17300
C573        C  0.67089493  0.13918826  0.88190071    -0.27700
C574        C  0.66125888  0.16504252  0.86742693     0.18300
C575        C  0.54260962  0.13795981  0.88357821     0.12300
C576        C  0.55486871  0.07128657  0.90912860    -0.12100
H577        H  0.64242880  0.08806737  0.90585154     0.12600
C578        C  0.69696167  0.20129550  0.85347889    -0.22900
H579        H  0.61046525  0.18147282  0.85661733     0.08200
C580        C  0.54574759  0.17277450  0.89681946     0.04600
C581        C  0.50814183  0.17981367  0.89875783    -0.20100
C582        C  0.46753313  0.15361356  0.88747379    -0.12400
C583        C  0.46410755  0.11831173  0.87428861     0.13300
C584        C  0.50185523  0.11100098  0.87249178    -0.22800
C585        C  0.58927882  0.20321653  0.90864675    -0.05900
H586        H  0.51098753  0.20705147  0.90872617     0.14800
C587        C  0.42107720  0.08704019  0.86236236    -0.16100
H588        H  0.49952131  0.08421974  0.86237073     0.09100
H589        H  0.69899721  0.23489085  0.85645647     0.07000
H590        H  0.68663208  0.19155817  0.83723037     0.08200
H591        H  0.73198556  0.20680580  0.85552966     0.07200
H592        H  0.52428906  0.04578594  0.90033739     0.02100
H593        H  0.54461471  0.09085945  0.91951644     0.02600
H594        H  0.56711733  0.05218098  0.91874445     0.06100
H595        H  0.58596447  0.22877909  0.91826058     0.05100
H596        H  0.61829881  0.22245183  0.89781334    -0.00700
H597        H  0.59746903  0.18188198  0.91893775     0.00800
H598        H  0.42862055  0.09177003  0.84564159     0.04400
H599        H  0.39229955  0.09333417  0.86560066     0.06400
H600        H  0.40921963  0.05061595  0.86646310     0.07300
C601        C  0.10823019  0.18967123  0.86246432    -0.22400
C602        C  0.09244486  0.19063160  0.88225949     0.09600
C603        C  0.12155433  0.19781785  0.89921809     0.10000
C604        C  0.16521375  0.20239494  0.89598091    -0.17300
C605        C  0.18047330  0.19939206  0.87615541    -0.27700
C606        C  0.15160965  0.19414943  0.85908203     0.18300
C607        C  0.04413630  0.18096710  0.88449045     0.12300
C608        C  0.10653242  0.20054292  0.92071698    -0.12100
H609        H  0.18675179  0.20658703  0.90914746     0.12600
C610        C  0.16558029  0.19318830  0.83710951    -0.22900
H611        H  0.08567298  0.18407723  0.84951375     0.08200
C612        C  0.03026069  0.21162980  0.87689265     0.04600
C613        C  0.98306826  0.19710864  0.87552105    -0.20100
C614        C  0.94921121  0.15289396  0.88192794    -0.12400
C615        C  0.96334883  0.12312051  0.89070508     0.13300
C616        C  0.01054483  0.13763896  0.89180047    -0.22800
C617        C  0.06527965  0.25964035  0.87016413    -0.05900
H618        H  0.97244548  0.22004228  0.86894415     0.14800
C619        C  0.93021373  0.07475565  0.89791327    -0.16100
H620        H  0.02111981  0.11391317  0.89745962     0.09100
H621        H  0.14057346  0.19340600  0.82598508     0.07000
H622        H  0.16691148  0.16128313  0.83414884     0.08200
H623        H  0.19957245  0.22406033  0.83394616     0.07200
H624        H  0.07548136  0.16750567  0.92488845     0.02100
H625        H  0.09846262  0.22882540  0.92165860     0.02600
H626        H  0.13379556  0.20745399  0.93217390     0.06100
H627        H  0.04871461  0.27964355  0.86525946     0.05100
H628        H  0.08560225  0.25831057  0.85701912    -0.00700
H629        H  0.08884269  0.27821659  0.88314319     0.00800
H630        H  0.93629162  0.04983254  0.88917639     0.04400
H631        H  0.89365593  0.06434444  0.89589266     0.06400
H632        H  0.93606394  0.07169330  0.91449453     0.07300
C633        C  0.87964901  0.07758520  0.09849851    -0.22400
C634        C  0.90546302  0.09949691  0.11613375     0.09600
C635        C  0.88624794  0.08241779  0.13569000     0.10000
C636        C  0.84245462  0.04303434  0.13713318    -0.17300
C637        C  0.81712044  0.01959511  0.11954461    -0.27700
C638        C  0.83593992  0.03763557  0.09989401     0.18300
C639        C  0.95405857  0.13744520  0.11396926     0.12300
C640        C  0.91265297  0.10451568  0.15511567    -0.12100
H641        H  0.82835579  0.02975974  0.15222000     0.12600
C642        C  0.81169541  0.01378642  0.08032989    -0.22900
H643        H  0.89460160  0.09091608  0.08353667     0.08200
C644        C  0.98906422  0.12827578  0.10776135     0.04600
C645        C  0.03524935  0.16366393  0.10853100    -0.20100
C646        C  0.04746342  0.20763678  0.11593979    -0.12400
C647        C  0.01239286  0.21756965  0.12112136     0.13300
C648        C  0.96608785  0.18236648  0.11995762    -0.22800
C649        C  0.97807788  0.08049199  0.10155673    -0.05900
H650        H  0.06219277  0.15602975  0.10472168     0.14800
C651        C  0.02267167  0.26475442  0.12798597    -0.16100
H652        H  0.93923167  0.18961962  0.12441503     0.09100
H653        H  0.83242498  0.03153475  0.06649325     0.07000
H654        H  0.77852237  0.01336243  0.07903057     0.08200
H655        H  0.80541557  0.97796018  0.08026666     0.07200
H656        H  0.91949781  0.14042951  0.15627917     0.02100
H657        H  0.94582073  0.10469266  0.15503281     0.02600
H658        H  0.89323637  0.08570516  0.16905629     0.06100
H659        H  0.00969441  0.07902611  0.09801340     0.05100
H660        H  0.95611970  0.06944589  0.08761166    -0.00700
H661        H  0.95973174  0.05590024  0.11425639     0.00800
H662        H  0.00444171  0.27703004  0.11781750     0.04400
H663        H  0.05984025  0.29074994  0.12730411     0.06400
H664        H  0.01049623  0.26292748  0.14400813     0.07300
C665        C  0.36665191  0.54785502  0.13366844    -0.22400
C666        C  0.40473556  0.55475870  0.12207791     0.09600
C667        C  0.40205415  0.51797094  0.11044465     0.10000
C668        C  0.36027369  0.47593887  0.10960670    -0.17300
C669        C  0.32108526  0.46986804  0.12012335    -0.27700
C670        C  0.32461859  0.50622155  0.13266125     0.18300
C671        C  0.44413380  0.60242753  0.11983345     0.12300
C672        C  0.44262571  0.52388538  0.09812910    -0.12100
H673        H  0.35752047  0.44837360  0.09990503     0.12600
C674        C  0.28439534  0.50439365  0.14390418    -0.22900
H675        H  0.36882434  0.57636664  0.14246840     0.08200
C676        C  0.44125269  0.63367719  0.10622668     0.04600
C677        C  0.47898225  0.67830569  0.10411778    -0.20100
C678        C  0.51987553  0.69281445  0.11522279    -0.12400
C679        C  0.52313768  0.66103882  0.12858327     0.13300
C680        C  0.48490374  0.61639510  0.13088225    -0.22800
C681        C  0.39836303  0.61982002  0.09377430    -0.05900
H682        H  0.47623558  0.70237914  0.09390127     0.14800
C683        C  0.56660568  0.67188596  0.13992725    -0.16100
H684        H  0.48718640  0.59202119  0.14107643     0.09100
H685        H  0.27889579  0.53258680  0.13830363     0.07000
H686        H  0.29203506  0.50924403  0.16061686     0.08200
H687        H  0.25167819  0.47179456  0.14183713     0.07200
H688        H  0.47208897  0.53272941  0.10855525     0.02100
H689        H  0.45270953  0.55196206  0.08671398     0.02600
H690        H  0.43464758  0.49189825  0.08971328     0.06100
H691        H  0.40223138  0.64814409  0.08358940     0.05100
H692        H  0.36877340  0.61060179  0.10416083    -0.00700
H693        H  0.39074911  0.58969687  0.08397664     0.00800
H694        H  0.56059764  0.67092996  0.15674494     0.04400
H695        H  0.59639945  0.70580651  0.13587958     0.06400
H696        H  0.57632188  0.64559584  0.13606768     0.07300
C697        C  0.11274880  0.49791319  0.12099020    -0.22400
C698        C  0.14771345  0.54197275  0.11511708     0.09600
C699        C  0.18987794  0.54795542  0.10765892     0.10000
C700        C  0.19569229  0.50954689  0.10580891    -0.17300
C701        C  0.16077719  0.46540533  0.11156650    -0.27700
C702        C  0.11873480  0.45940096  0.11933095     0.18300
C703        C  0.13957788  0.58153124  0.11619889     0.12300
C704        C  0.22868792  0.59479562  0.10148756    -0.12100
H705        H  0.22808281  0.51407476  0.10012752     0.12600
C706        C  0.07912060  0.41297955  0.12535954    -0.22900
H707        H  0.08043379  0.49349753  0.12668995     0.08200
C708        C  0.11465330  0.58919685  0.10075769     0.04600
C709        C  0.11406575  0.63081715  0.10058267    -0.20100
C710        C  0.13842563  0.66527238  0.11531528    -0.12400
C711        C  0.16285452  0.65700942  0.13103047     0.13300
C712        C  0.16185308  0.61468193  0.13153741    -0.22800
C713        C  0.09044198  0.55434330  0.08396167    -0.05900
H714        H  0.09599991  0.63729786  0.08839155     0.14800
C715        C  0.19370491  0.69277054  0.14651660    -0.16100
H716        H  0.18139793  0.60875294  0.14320891     0.09100
H717        H  0.04825121  0.40563138  0.11620641     0.07000
H718        H  0.07127403  0.41327954  0.14191516     0.08200
H719        H  0.08605397  0.38438219  0.12267161     0.07200
H720        H  0.24042374  0.61822297  0.11496761     0.02100
H721        H  0.21686700  0.60956937  0.08925491     0.02600
H722        H  0.25876724  0.59300468  0.09553057     0.06100
H723        H  0.07328106  0.56607508  0.07287174     0.05100
H724        H  0.06376863  0.52126427  0.09074705    -0.00700
H725        H  0.11567062  0.54852551  0.07537186     0.00800
H726        H  0.18013387  0.68081256  0.16224037     0.04400
H727        H  0.19757238  0.72710348  0.14417517     0.06400
H728        H  0.22885323  0.69750089  0.14553195     0.07300
C729        C  0.19746065  0.01757622  0.12603855    -0.22400
C730        C  0.16361728  0.02904449  0.12118845     0.09600
C731        C  0.11833581  0.99341518  0.11676591     0.10000
C732        C  0.10806788  0.94739684  0.11738406    -0.17300
C733        C  0.14143359  0.93588647  0.12292657    -0.27700
C734        C  0.18681773  0.97136478  0.12720084     0.18300
C735        C  0.17534312  0.07816396  0.12174297     0.12300
C736        C  0.08015693  0.00356160  0.11237016    -0.12100
H737        H  0.07313125  0.91999955  0.11443479     0.12600
C738        C  0.22473982  0.96171862  0.13282775    -0.22900
H739        H  0.23226972  0.04485995  0.12924880     0.08200
C740        C  0.18385467  0.10236353  0.14047555     0.04600
C741        C  0.18960039  0.14683521  0.14047224    -0.20100
C742        C  0.18573062  0.16748990  0.12232774    -0.12400
C743        C  0.17704556  0.14300330  0.10353942     0.13300
C744        C  0.17364266  0.09946012  0.10346494    -0.22800
C745        C  0.18469254  0.08058544  0.16062734    -0.05900
H746        H  0.19557701  0.16507457  0.15492645     0.14800
C747        C  0.16725321  0.15917944  0.08356144    -0.16100
H748        H  0.16682075  0.08069005  0.08911332     0.09100
H749        H  0.23768687  0.97528207  0.14846446     0.07000
H750        H  0.25347759  0.97918151  0.12169244     0.08200
H751        H  0.21347737  0.92447423  0.13261832     0.07200
H752        H  0.08747160  0.02389620  0.09801906     0.02100
H753        H  0.07685597  0.02323440  0.12534436     0.02600
H754        H  0.04647815  0.97147035  0.11037166     0.06100
H755        H  0.18980335  0.10361602  0.17385660     0.05100
H756        H  0.21331039  0.07304341  0.16072417    -0.00700
H757        H  0.15154918  0.04807505  0.16290101     0.00800
H758        H  0.19336183  0.16349032  0.07198076     0.04400
H759        H  0.16685073  0.19178150  0.08484802     0.06400
H760        H  0.13276710  0.13282791  0.07786223     0.07300
C761        C  0.24009553  0.29720001  0.00869691    -0.22400
C762        C  0.25185982  0.26258472  0.00974598     0.09600
C763        C  0.25135311  0.24285587  0.02898259     0.10000
C764        C  0.23920785  0.25828514  0.04673047    -0.17300
C765        C  0.22760155  0.29312640  0.04579806    -0.27700
C766        C  0.22760555  0.31251637  0.02638800     0.18300
C767        C  0.26685199  0.24917260  0.99068768     0.12300
C768        C  0.26375608  0.20558306  0.03076154    -0.12100
H769        H  0.23988563  0.24386483  0.06153304     0.12600
C770        C  0.21336248  0.34827514  0.02347443    -0.22900
H771        H  0.24053816  0.31232965  0.99390343     0.08200
C772        C  0.23522837  0.21866906  0.97607881     0.04600
C773        C  0.25158797  0.20757466  0.95828490    -0.20100
C774        C  0.29909461  0.22622827  0.95460064    -0.12400
C775        C  0.33070089  0.25681970  0.96958714     0.13300
C776        C  0.31398023  0.26775076  0.98726076    -0.22800
C777        C  0.18419564  0.19755527  0.97937537    -0.05900
H778        H  0.22688165  0.18413913  0.94718562     0.14800
C779        C  0.38220540  0.27867651  0.96740148    -0.16100
H780        H  0.33793264  0.29117223  0.99860831     0.09100
H781        H  0.18501378  0.33557419  0.01205054     0.07000
H782        H  0.24301624  0.38065500  0.01760053     0.08200
H783        H  0.20056269  0.35615607  0.03768350     0.07200
H784        H  0.29963981  0.21879745  0.02546732     0.02100
H785        H  0.24003682  0.17561592  0.02115456     0.02600
H786        H  0.26123744  0.19354701  0.04686173     0.06100
H787        H  0.16407796  0.17389524  0.96665238     0.05100
H788        H  0.17508128  0.22509995  0.98025729    -0.00700
H789        H  0.17410549  0.17758678  0.99393485     0.00800
H790        H  0.39402466  0.30041411  0.95336870     0.04400
H791        H  0.39194396  0.25155993  0.96670672     0.06400
H792        H  0.40087310  0.30132803  0.98063493     0.07300
C793        C  0.76559914  0.17216243  0.77253308    -0.22400
C794        C  0.80480382  0.18900175  0.76007435     0.09600
C795        C  0.84830505  0.20572058  0.76936995     0.10000
C796        C  0.85124421  0.20230094  0.79075268    -0.17300
C797        C  0.81175945  0.18228395  0.80322522    -0.27700
C798        C  0.76827863  0.16824017  0.79398303     0.18300
C799        C  0.79964862  0.18270188  0.73738967     0.12300
C800        C  0.89148618  0.22485802  0.75659523    -0.12100
H801        H  0.88452519  0.21329588  0.79769729     0.12600
C802        C  0.72340409  0.14584702  0.80563303    -0.22900
H803        H  0.73224832  0.15935084  0.76532477     0.08200
C804        C  0.78793030  0.13978763  0.72848947     0.04600
C805        C  0.79391702  0.13713881  0.70729322    -0.20100
C806        C  0.81138183  0.17631983  0.69465476    -0.12400
C807        C  0.81968992  0.21871418  0.70335135     0.13300
C808        C  0.81338061  0.22112571  0.72462041    -0.22800
C809        C  0.77155957  0.09723242  0.74153743    -0.05900
H810        H  0.78718615  0.10464305  0.70068620     0.14800
C811        C  0.83844865  0.26298646  0.69130670    -0.16100
H812        H  0.82217123  0.25398943  0.73150843     0.09100
H813        H  0.70036127  0.11094003  0.79925644     0.07000
H814        H  0.70647293  0.16682784  0.80374112     0.08200
H815        H  0.72692436  0.14173744  0.82223986     0.07200
H816        H  0.89638012  0.25555185  0.74795671     0.02100
H817        H  0.88882043  0.19832956  0.74557737     0.02600
H818        H  0.92250643  0.23553534  0.76624820     0.06100
H819        H  0.76475748  0.06673705  0.73218518     0.05100
H820        H  0.73909199  0.08926878  0.74943433    -0.00700
H821        H  0.79805251  0.10291142  0.75319701     0.00800
H822        H  0.81372219  0.27580633  0.69210123     0.04400
H823        H  0.84490827  0.25967595  0.67493480     0.06400
H824        H  0.87163302  0.28932225  0.69814383     0.07300
C825        C  0.01231693  0.26813528  0.52964729    -0.22400
C826        C  0.99406435  0.24710239  0.51065701     0.09600
C827        C  0.94772435  0.21138086  0.50950419     0.10000
C828        C  0.92043184  0.19794424  0.52735545    -0.17300
C829        C  0.93856407  0.21929859  0.54631347    -0.27700
C830        C  0.98509670  0.25491775  0.54748441     0.18300
C831        C  0.02349383  0.26440062  0.49201396     0.12300
C832        C  0.92698165  0.18808028  0.48936224    -0.12100
H833        H  0.88468320  0.17091768  0.52650161     0.12600
C834        C  0.00668730  0.28081681  0.56707872    -0.22900
H835        H  0.04782521  0.29576741  0.53046033     0.08200
C836        C  0.03014331  0.30424032  0.48164901     0.04600
C837        C  0.05777636  0.31915157  0.46394338    -0.20100
C838        C  0.07913431  0.29525437  0.45626267    -0.12400
C839        C  0.07346941  0.25596447  0.46711360     0.13300
C840        C  0.04516853  0.24076531  0.48465119    -0.22800
C841        C  0.00734898  0.33052095  0.48908296    -0.05900
H842        H  0.06190552  0.34919384  0.45578172     0.14800
C843        C  0.09799759  0.23021565  0.46136843    -0.16100
H844        H  0.04053135  0.21057742  0.49286924     0.09100
H845        H  0.01887732  0.31800417  0.56475785     0.07000
H846        H  0.03659469  0.27681383  0.57117492     0.08200
H847        H  0.98260343  0.26885681  0.58026926     0.07200
H848        H  0.94594348  0.17135428  0.48330113     0.02100
H849        H  0.92915802  0.21394423  0.47807179     0.02600
H850        H  0.89022632  0.16119288  0.49108127     0.06100
H851        H  0.01557371  0.36050517  0.47905860     0.05100
H852        H  0.01927758  0.34358347  0.50487324    -0.00700
H853        H  0.96941509  0.30751588  0.48920229     0.00800
H854        H  0.11707018  0.22833014  0.47493917     0.04400
H855        H  0.12365203  0.24692742  0.44897814     0.06400
H856        H  0.07242487  0.19463294  0.45654172     0.07300
C857        C  0.13827358  0.35344253  0.22912687    -0.22400
C858        C  0.18148739  0.38121743  0.23814598     0.09600
C859        C  0.22067817  0.40456336  0.22546639     0.10000
C860        C  0.21613846  0.39705711  0.20408890    -0.17300
C861        C  0.17341423  0.36593222  0.19528702    -0.27700
C862        C  0.13365903  0.34569665  0.20786650     0.18300
C863        C  0.18504934  0.37970812  0.26085208     0.12300
C864        C  0.26738291  0.43591685  0.23460494    -0.12100
H865        H  0.24658829  0.41269776  0.19446501     0.12600
C866        C  0.08597951  0.31498966  0.19941171    -0.22900
H867        H  0.10811772  0.33593092  0.23887106     0.08200
C868        C  0.17031701  0.40302024  0.27413922     0.04600
C869        C  0.16751820  0.39418522  0.29539601    -0.20100
C870        C  0.17799189  0.36164013  0.30355217    -0.12400
C871        C  0.19520307  0.34026378  0.29026257     0.13300
C872        C  0.19867300  0.34979503  0.26912324    -0.22800
C873        C  0.15672372  0.43641525  0.26581173    -0.05900
H874        H  0.15468522  0.41087876  0.30552918     0.14800
C875        C  0.21010549  0.30744857  0.29816727    -0.16100
H876        H  0.21019527  0.33221886  0.25880421     0.09100
H877        H  0.06328928  0.32870305  0.20405194     0.07000
H878        H  0.07175580  0.27964642  0.20571380     0.08200
H879        H  0.08522881  0.31309850  0.18239364     0.07200
H880        H  0.27713346  0.41614964  0.24512895     0.02100
H881        H  0.26657704  0.46395372  0.24334406     0.02600
H882        H  0.29431179  0.45186382  0.22255740     0.06100
H883        H  0.14652460  0.45212307  0.27828544     0.05100
H884        H  0.12713153  0.41837461  0.25515182    -0.00700
H885        H  0.18620309  0.46452760  0.25740402     0.00800
H886        H  0.18007547  0.27550913  0.30407386     0.04400
H887        H  0.23592364  0.32423408  0.31059290     0.06400
H888        H  0.22607254  0.29711372  0.28586602     0.07300
C889        C  0.42176058  0.22122806  0.72565852    -0.22400
C890        C  0.39805765  0.18595495  0.74014080     0.09600
C891        C  0.36587188  0.14127941  0.73325507     0.10000
C892        C  0.35724784  0.13316000  0.71219910    -0.17300
C893        C  0.37891716  0.16865777  0.69767664    -0.27700
C894        C  0.41247386  0.21326007  0.70443111     0.18300
C895        C  0.39937466  0.19743777  0.76225729     0.12300
C896        C  0.33813018  0.10267754  0.74819018    -0.12100
H897        H  0.33157908  0.09902400  0.70705210     0.12600
C898        C  0.43676358  0.25377663  0.69008634    -0.22900
H899        H  0.44565517  0.25575844  0.73103019     0.08200
C900        C  0.42286664  0.18613624  0.77711215     0.04600
C901        C  0.41258378  0.18638690  0.79812776    -0.20100
C902        C  0.37931536  0.19763133  0.80437513    -0.12400
C903        C  0.35921483  0.21305632  0.78950619     0.13300
C904        C  0.36940789  0.21257397  0.76869883    -0.22800
C905        C  0.45790108  0.17302896  0.77072038    -0.05900
H906        H  0.42861548  0.17540988  0.80954601     0.14800
C907        C  0.32619088  0.22961204  0.79494188    -0.16100
H908        H  0.35182657  0.22175629  0.75727448     0.09100
H909        H  0.47445270  0.26746143  0.69091006     0.07000
H910        H  0.42951906  0.28135970  0.69480492     0.08200
H911        H  0.42592049  0.24516358  0.67387583     0.07200
H912        H  0.31780255  0.11232052  0.75840074     0.02100
H913        H  0.36126794  0.09554681  0.75769409     0.02600
H914        H  0.31370540  0.07025785  0.74016526     0.06100
H915        H  0.47305332  0.16515761  0.78421917     0.05100
H916        H  0.48614784  0.20205254  0.76215379    -0.00700
H917        H  0.44189980  0.14219584  0.76066016     0.00800
H918        H  0.33925528  0.26478609  0.78862774     0.04400
H919        H  0.32191891  0.23169565  0.81171861     0.06400
H920        H  0.29196197  0.20613384  0.78808109     0.07300
C921        C  0.63523748  0.17508428  0.60565013    -0.22400
C922        C  0.60176144  0.13368840  0.61451366     0.09600
C923        C  0.61445438  0.10198788  0.62187146     0.10000
C924        C  0.66061843  0.11255874  0.62014431    -0.17300
C925        C  0.69422702  0.15409342  0.61116410    -0.27700
C926        C  0.68133206  0.18617197  0.60420014     0.18300
C927        C  0.55421449  0.12589317  0.61634688     0.12300
C928        C  0.57933026  0.05725357  0.63154264    -0.12100
H929        H  0.67044288  0.08816510  0.62564026     0.12600
C930        C  0.71526896  0.23344111  0.59607751    -0.22900
H931        H  0.62546448  0.19965436  0.60030745     0.08200
C932        C  0.54205568  0.14591017  0.63247401     0.04600
C933        C  0.49993062  0.14538111  0.63163407    -0.20100
C934        C  0.46990562  0.12592890  0.61484394    -0.12400
C935        C  0.48046067  0.10235559  0.59958225     0.13300
C936        C  0.52275147  0.10319610  0.60041435    -0.22800
C937        C  0.57451872  0.16962524  0.65011321    -0.05900
H938        H  0.49197095  0.16312834  0.64344422     0.14800
C939        C  0.44805696  0.07591412  0.58225692    -0.16100
H940        H  0.53184265  0.08719414  0.58820581     0.09100
H941        H  0.71254976  0.25997868  0.60520941     0.07000
H942        H  0.70714790  0.23623643  0.57978201     0.08200
H943        H  0.75154007  0.24186822  0.59708655     0.07200
H944        H  0.55163732  0.03672986  0.62029398     0.02100
H945        H  0.56405906  0.06428938  0.64522366     0.02600
H946        H  0.59486475  0.03634569  0.63652620     0.06100
H947        H  0.55973633  0.18336229  0.66147240     0.05100
H948        H  0.60723231  0.19888672  0.64430597    -0.00700
H949        H  0.58192151  0.14482060  0.65813708     0.00800
H950        H  0.46362000  0.09261791  0.56736262     0.04400
H951        H  0.41395387  0.07327104  0.58381321     0.06400
H952        H  0.44189812  0.04012327  0.58209549     0.07300
C953        C  0.18497539  0.20000157  0.62570013    -0.22400
C954        C  0.13962152  0.16680867  0.62049121     0.09600
C955        C  0.12952057  0.12151075  0.61563437     0.10000
C956        C  0.16466551  0.11038296  0.61654418    -0.17300
C957        C  0.20942579  0.14295392  0.62271213    -0.27700
C958        C  0.21994001  0.18858107  0.62703035     0.18300
C959        C  0.10256232  0.17906337  0.62122166     0.12300
C960        C  0.08122785  0.08415262  0.61048558    -0.12100
H961        H  0.15661956  0.07533481  0.61342132     0.12600
C962        C  0.26762950  0.22602842  0.63290031    -0.22900
H963        H  0.19299571  0.23490903  0.62910415     0.08200
C964        C  0.08638008  0.18645844  0.64005215     0.04600
C965        C  0.04718468  0.19137678  0.64021229    -0.20100
C966        C  0.02287300  0.18840636  0.62208847    -0.12400
C967        C  0.04019180  0.18237309  0.60307255     0.13300
C968        C  0.08034263  0.17900357  0.60296541    -0.22800
C969        C  0.10916186  0.18722175  0.66013366    -0.05900
H970        H  0.03446841  0.19608135  0.65479795     0.14800
C971        C  0.01635811  0.17565630  0.58266737    -0.16100
H972        H  0.09302304  0.17361108  0.58850625     0.09100
H973        H  0.26690560  0.23884308  0.64855022     0.07000
H974        H  0.27957377  0.25504085  0.62184729     0.08200
H975        H  0.29321180  0.21432033  0.63274782     0.07200
H976        H  0.06944502  0.09284687  0.59612509     0.02100
H977        H  0.05758158  0.08031140  0.62323935     0.02600
H978        H  0.07911255  0.05032263  0.60811371     0.06100
H979        H  0.09100238  0.19157745  0.67345596     0.05100
H980        H  0.14510670  0.21638021  0.66029203    -0.00700
H981        H  0.10918886  0.15434829  0.66219006     0.00800
H982        H  0.03919881  0.20369013  0.57199088     0.04400
H983        H  0.98323946  0.17475552  0.58356525     0.06400
H984        H  0.00907374  0.14221281  0.57593792     0.07300
C985        C  0.26503164  0.00006032  0.47275692    -0.22400
C986        C  0.25133130  0.97677953  0.49157992     0.09600
C987        C  0.22574215  0.92817563  0.49186372     0.10000
C988        C  0.21491901  0.90383071  0.47320617    -0.17300
C989        C  0.22895165  0.92709766  0.45433271    -0.27700
C990        C  0.25478729  0.97588054  0.45412492     0.18300
C991        C  0.26622517  0.00402520  0.51082615     0.12300
C992        C  0.21048971  0.90214881  0.51185936    -0.12100
H993        H  0.19541806  0.86647881  0.47332519     0.12600
C994        C  0.27409507  0.00354926  0.43473492    -0.22900
H995        H  0.28513742  0.03740565  0.47265730     0.08200
C996        C  0.31124462  0.02165677  0.51844998     0.04600
C997        C  0.32405297  0.04735138  0.53668309    -0.20100
C998        C  0.29295278  0.05597123  0.54764535    -0.12400
C999        C  0.24761073  0.03819381  0.53983465     0.13300
C1000       C  0.23499747  0.01249280  0.52150467    -0.22800
C1001       C  0.34565530  0.01288547  0.50746117    -0.05900
H1002       H  0.35867326  0.06043044  0.54248011     0.14800
C1003       C  0.21250510  0.04682955  0.55025062    -0.16100
H1004       H  0.20055233  0.99891219  0.51538893     0.09100
H1005       H  0.31188490  0.02629499  0.43638754     0.07000
H1006       H  0.25822269  0.02526468  0.43202814     0.08200
H1007       H  0.26844645  0.98179579  0.42105710     0.07200
H1008       H  0.18762572  0.91171150  0.52019455     0.02100
H1009       H  0.24098759  0.91072891  0.52154622     0.02600
H1010       H  0.19123101  0.86428241  0.50936696     0.06100
H1011       H  0.37910813  0.02847432  0.51570460     0.05100
H1012       H  0.35211782  0.02799162  0.49180085    -0.00700
H1013       H  0.33210057  0.97520375  0.50626783     0.00800
H1014       H  0.17994028  0.03222268  0.54134927     0.04400
H1015       H  0.22620759  0.08447802  0.55179797     0.06400
H1016       H  0.20386746  0.03032906  0.56562300     0.07300
C1017       C  0.21285501  0.09533617  0.36486799    -0.22400
C1018       C  0.19161785  0.09980025  0.38253599     0.09600
C1019       C  0.18233618  0.06939378  0.39917157     0.10000
C1020       C  0.19205809  0.03334300  0.39726969    -0.17300
C1021       C  0.21021009  0.02668003  0.37895189    -0.27700
C1022       C  0.22294275  0.05963753  0.36295492     0.18300
C1023       C  0.17558478  0.13375916  0.38239910     0.12300
C1024       C  0.16058736  0.07403631  0.41858592    -0.12100
H1025       H  0.18235879  0.00839322  0.40959030     0.12600
C1026       C  0.24701305  0.05824834  0.34363077    -0.22900
H1027       H  0.22062135  0.11927925  0.35225033     0.17800
C1028       C  0.20519911  0.18080231  0.38691233     0.04600
C1029       C  0.18853873  0.21176112  0.38529475    -0.20100
C1030       C  0.14310913  0.19654503  0.37906555    -0.12400
C1031       C  0.11309295  0.14906462  0.37519945     0.13300
C1032       C  0.12986639  0.11839845  0.37679319    -0.22800
C1033       C  0.25431561  0.19817672  0.39323245    -0.05900
H1034       H  0.21134364  0.24810653  0.38832369     0.14800
C1035       C  0.06303329  0.12935540  0.36966723    -0.16100
H1036       H  0.10713369  0.08213512  0.37350310     0.09100
H1037       H  0.27844587  0.09228634  0.34126674     0.07000
H1038       H  0.22381634  0.05069171  0.33022872     0.08200
H1039       H  0.25841129  0.03244903  0.34430457     0.07200
H1040       H  0.12631272  0.06981857  0.41509181     0.02100
H1041       H  0.18286360  0.10860935  0.42542745     0.02600
H1042       H  0.15584918  0.04765020  0.43016121     0.06100
H1043       H  0.27278161  0.23581522  0.39633783     0.05100
H1044       H  0.27284154  0.19145829  0.38079982    -0.00700
H1045       H  0.25512326  0.18021962  0.40743144     0.00800
H1046       H  0.05644884  0.11317309  0.35422490     0.04400
H1047       H  0.05201746  0.15544886  0.36951563     0.06400
H1048       H  0.04124990  0.10264712  0.38109690     0.07300
C1049       C  0.15200960  0.53628776  0.36335993    -0.22400
C1050       C  0.14445180  0.55559056  0.38095503     0.09600
C1051       C  0.13191091  0.53050723  0.39948117     0.10000
C1052       C  0.12996938  0.48777833  0.40033456    -0.17300
C1053       C  0.14142336  0.46973123  0.38322104    -0.27700
C1054       C  0.15081454  0.49373115  0.36417057     0.18300
C1055       C  0.15457947  0.60400062  0.38032671     0.12300
C1056       C  0.12254417  0.54982391  0.41860978    -0.12100
H1057       H  0.12183407  0.46958192  0.41487159     0.12600
C1058       C  0.16201400  0.47653437  0.34483104    -0.22900
H1059       H  0.16127126  0.55586022  0.34916948     0.08200
C1060       C  0.19904557  0.64058827  0.38503780     0.04600
C1061       C  0.20666604  0.68564713  0.38612002    -0.20100
C1062       C  0.17107648  0.69508882  0.38233125    -0.12400
C1063       C  0.12688233  0.65868484  0.37689389     0.13300
C1064       C  0.11915898  0.61341422  0.37601565    -0.22800
C1065       C  0.23828510  0.63195168  0.38920037    -0.05900
H1066       H  0.24053409  0.71372720  0.39017796     0.14800
C1067       C  0.08690768  0.66605815  0.37264493    -0.16100
H1068       H  0.08508915  0.58517501  0.37239130     0.09100
H1069       H  0.19386804  0.47473371  0.34706060     0.07000
H1070       H  0.16796514  0.49971363  0.33155513     0.08200
H1071       H  0.13286913  0.44201270  0.34075770     0.07200
H1072       H  0.09350999  0.55608354  0.41578680     0.02100
H1073       H  0.15359080  0.58281591  0.42288556     0.02600
H1074       H  0.11332182  0.52584763  0.43184307     0.06100
H1075       H  0.27077602  0.66441950  0.39259862     0.05100
H1076       H  0.24419989  0.61577510  0.37553173    -0.00700
H1077       H  0.23002430  0.60860441  0.40260031     0.00800
H1078       H  0.07404484  0.65434579  0.35680533     0.04400
H1079       H  0.09599746  0.70260846  0.37403961     0.06400
H1080       H  0.05873318  0.64561580  0.38370422     0.07300
C1081       C  0.20301481  0.85005930  0.26679923    -0.22400
C1082       C  0.19454810  0.80635397  0.26093814     0.09600
C1083       C  0.19183748  0.77488065  0.27603729     0.10000
C1084       C  0.19416826  0.78675693  0.29693040    -0.17300
C1085       C  0.19914897  0.82936162  0.30281564    -0.27700
C1086       C  0.20601258  0.86229818  0.28750242     0.18300
C1087       C  0.18304654  0.79347086  0.23911867     0.12300
C1088       C  0.18584640  0.72879712  0.27007655    -0.12100
H1089       H  0.18989316  0.76194456  0.30865848     0.12600
C1090       C  0.21673470  0.91074937  0.29230475    -0.22900
H1091       H  0.20588870  0.87440186  0.25507931     0.08200
C1092       C  0.13697308  0.77345975  0.23249704     0.04600
C1093       C  0.12762520  0.77166769  0.21147683    -0.20100
C1094       C  0.16317699  0.79060044  0.19689646    -0.12400
C1095       C  0.20932184  0.80857185  0.20340937     0.13300
C1096       C  0.21858114  0.80949116  0.22454522    -0.22800
C1097       C  0.09781781  0.75705963  0.24763936    -0.05900
H1098       H  0.09232314  0.75780381  0.20642640     0.14800
C1099       C  0.24979454  0.83003794  0.18892021    -0.16100
H1100       H  0.25396105  0.82555007  0.22977693     0.09100
H1101       H  0.18795500  0.91556052  0.28702261     0.07000
H1102       H  0.24858790  0.93570051  0.28408192     0.08200
H1103       H  0.22294300  0.91945498  0.30884472     0.07200
H1104       H  0.21529127  0.73404954  0.26037440     0.02100
H1105       H  0.15351778  0.70852432  0.26127043     0.02600
H1106       H  0.18446962  0.70837602  0.28377911     0.06100
H1107       H  0.06406732  0.74320938  0.23977917     0.05100
H1108       H  0.10273314  0.78611913  0.25756865    -0.00700
H1109       H  0.09634989  0.72927076  0.25741572     0.00800
H1110       H  0.27319033  0.86648788  0.19338852     0.04400
H1111       H  0.24001443  0.82989400  0.17268947     0.06400
H1112       H  0.26895768  0.81104884  0.18991257     0.07300
C1113       C  0.85613029  0.62621667  0.72811869    -0.22400
C1114       C  0.81294603  0.60324181  0.73771052     0.09600
C1115       C  0.77278120  0.58341928  0.72547055     0.10000
C1116       C  0.77672042  0.58987569  0.70402962    -0.17300
C1117       C  0.81989411  0.61623242  0.69462262    -0.27700
C1118       C  0.86015737  0.63249067  0.70673483     0.18300
C1119       C  0.81104395  0.60597740  0.76048814     0.12300
C1120       C  0.72580390  0.55651825  0.73508491    -0.12100
H1121       H  0.74584551  0.57703518  0.69477147     0.12600
C1122       C  0.90786707  0.65680126  0.69764151    -0.22900
H1123       H  0.88701655  0.64098385  0.73747233     0.08200
C1124       C  0.82532517  0.58220643  0.77379957     0.04600
C1125       C  0.82943894  0.59192902  0.79501832    -0.20100
C1126       C  0.81991210  0.62514698  0.80311282    -0.12400
C1127       C  0.80192934  0.64595854  0.78993692     0.13300
C1128       C  0.79850713  0.63668885  0.76881030    -0.22800
C1129       C  0.83705988  0.54737742  0.76556143    -0.05900
H1130       H  0.84288229  0.57568741  0.80509114     0.14800
C1131       C  0.78608719  0.67820817  0.79760546    -0.16100
H1132       H  0.78701280  0.65454784  0.75863472     0.09100
H1133       H  0.92636754  0.63851840  0.70229517     0.07000
H1134       H  0.92713689  0.69274995  0.70345041     0.08200
H1135       H  0.90771519  0.65750212  0.68061313     0.07200
H1136       H  0.71955218  0.57895074  0.74554101     0.02100
H1137       H  0.72348450  0.52712931  0.74395922     0.02600
H1138       H  0.69814451  0.54254700  0.72330011     0.06100
H1139       H  0.84669467  0.53125414  0.77807128     0.05100
H1140       H  0.86650519  0.56420261  0.75476290    -0.00700
H1141       H  0.80682779  0.51969039  0.75735819     0.00800
H1142       H  0.80853345  0.71321149  0.79119910     0.04400
H1143       H  0.78608455  0.68048243  0.81459859     0.06400
H1144       H  0.75017361  0.66556086  0.79245453     0.07300
C1145       C  0.50308718  0.37329801  0.62711594    -0.22400
C1146       C  0.54321311  0.38692459  0.61562867     0.09600
C1147       C  0.54653782  0.35459430  0.60294036     0.10000
C1148       C  0.50972556  0.30923931  0.60209742    -0.17300
C1149       C  0.46967143  0.29502111  0.61379093    -0.27700
C1150       C  0.46595253  0.32774055  0.62625279     0.18300
C1151       C  0.58289747  0.43427483  0.61777457     0.12300
C1152       C  0.58934917  0.36776543  0.59054155    -0.12100
H1153       H  0.51264162  0.28432902  0.59253240     0.12600
C1154       C  0.42318747  0.31662762  0.63823941    -0.22900
H1155       H  0.50071331  0.39838327  0.63677477     0.08200
C1156       C  0.59057464  0.46953758  0.60378498     0.04600
C1157       C  0.63326536  0.51064500  0.60384029    -0.20100
C1158       C  0.66881014  0.51691709  0.61728214    -0.12400
C1159       C  0.66011510  0.48188940  0.63187898     0.13300
C1160       C  0.61684371  0.44164396  0.63218265    -0.22800
C1161       C  0.55446883  0.46291648  0.58825927    -0.05900
H1162       H  0.63985607  0.53705969  0.59255568     0.14800
C1163       C  0.69608502  0.48291847  0.64616209    -0.16100
H1164       H  0.61078890  0.41405979  0.64271151     0.09100
H1165       H  0.41077892  0.34035937  0.63348384     0.07000
H1166       H  0.43135074  0.32144438  0.65490491     0.08200
H1167       H  0.39448086  0.28109904  0.63573773     0.07200
H1168       H  0.61941767  0.37971488  0.60094742     0.02100
H1169       H  0.59575978  0.39585460  0.57965567     0.02600
H1170       H  0.58621588  0.33824173  0.58148203     0.06100
H1171       H  0.56602138  0.49385915  0.57840923     0.05100
H1172       H  0.52256795  0.45619127  0.59633758    -0.00700
H1173       H  0.54660000  0.43320999  0.57813523     0.00800
H1174       H  0.68516580  0.48212002  0.66233519     0.04400
H1175       H  0.73071953  0.51315290  0.64426634     0.06400
H1176       H  0.69945954  0.45204476  0.64336646     0.07300
C1177       C  0.01019274  0.85770759  0.60655661    -0.22400
C1178       C  0.04328356  0.84760118  0.61411901     0.09600
C1179       C  0.02904544  0.80271327  0.62140219     0.10000
C1180       C  0.98183717  0.77001594  0.62221033    -0.17300
C1181       C  0.94849916  0.78096385  0.61576656    -0.27700
C1182       C  0.96300255  0.82510661  0.60723779     0.18300
C1183       C  0.09123966  0.88625509  0.61697905     0.12300
C1184       C  0.06354757  0.78948700  0.62860361    -0.12100
H1185       H  0.97073331  0.73621704  0.62866555     0.12600
C1186       C  0.93016506  0.84066738  0.60005632    -0.22900
H1187       H  0.02107638  0.89231230  0.60119152     0.08200
C1188       C  0.12047550  0.91017555  0.60032813     0.04600
C1189       C  0.16349999  0.94954433  0.60417861    -0.20100
C1190       C  0.17789991  0.96612524  0.62429349    -0.12400
C1191       C  0.14915156  0.94054655  0.64101281     0.13300
C1192       C  0.10627812  0.90136889  0.63705514    -0.22800
C1193       C  0.10635363  0.89427318  0.57852210    -0.05900
H1194       H  0.18530081  0.96830958  0.59129636     0.14800
C1195       C  0.16303827  0.95356581  0.66314409    -0.16100
H1196       H  0.08355484  0.88295115  0.64976820     0.09100
H1197       H  0.93670010  0.85053195  0.58358747     0.07000
H1198       H  0.93591176  0.87117658  0.60911915     0.08200
H1199       H  0.89348324  0.81429821  0.60165970     0.07200
H1200       H  0.08259682  0.81027305  0.64218662     0.02100
H1201       H  0.08830748  0.79542901  0.61604460     0.02600
H1202       H  0.04663738  0.75257205  0.63305844     0.06100
H1203       H  0.13386574  0.91606378  0.56740380     0.05100
H1204       H  0.07516436  0.89598422  0.57443763    -0.00700
H1205       H  0.09893767  0.85821871  0.57686862     0.00800
H1206       H  0.16411207  0.98637673  0.66687719     0.04400
H1207       H  0.19720774  0.95689630  0.66595213     0.06400
H1208       H  0.13816996  0.92710012  0.67392332     0.07300
C1209       C  0.88310766  0.39423939  0.60408213    -0.22400
C1210       C  0.85263190  0.39762499  0.61776108     0.09600
C1211       C  0.82685336  0.36107451  0.63158072     0.10000
C1212       C  0.82962057  0.32068566  0.63035947    -0.17300
C1213       C  0.85741806  0.31583741  0.61557818    -0.27700
C1214       C  0.88639179  0.35408873  0.60303822     0.18300
C1215       C  0.84487528  0.43750574  0.61605548     0.12300
C1216       C  0.79565564  0.36426260  0.64733277    -0.12100
H1217       H  0.80765922  0.29164631  0.64012231     0.12600
C1218       C  0.92122660  0.35381197  0.58851119    -0.22900
H1219       H  0.90355488  0.42261997  0.59373468     0.08200
C1220       C  0.87733281  0.48215192  0.62295428     0.04600
C1221       C  0.86741742  0.51815871  0.62102050    -0.20100
C1222       C  0.82590900  0.51050808  0.61225549    -0.12400
C1223       C  0.79308373  0.46545660  0.60570855     0.13300
C1224       C  0.80342953  0.42991061  0.60736836    -0.22800
C1225       C  0.92202032  0.49161860  0.63257644    -0.05900
H1226       H  0.89232946  0.55253516  0.62618511     0.14800
C1227       C  0.74601315  0.45287960  0.59770007    -0.16100
H1228       H  0.77843456  0.39554719  0.60217902     0.09100
H1229       H  0.95579017  0.38354340  0.59201919     0.07000
H1230       H  0.91203854  0.35694465  0.57243699     0.08200
H1231       H  0.92393734  0.32228887  0.58987753     0.07200
H1232       H  0.76799357  0.36761689  0.63962958     0.02100
H1233       H  0.81595173  0.39474044  0.65731638     0.02600
H1234       H  0.77903951  0.33316692  0.65727780     0.06100
H1235       H  0.94304141  0.52811037  0.63753457     0.05100
H1236       H  0.94252278  0.48445448  0.62134504    -0.00700
H1237       H  0.91492686  0.46928997  0.64627569     0.00800
H1238       H  0.74230904  0.44048205  0.58161026     0.04400
H1239       H  0.73901402  0.48179653  0.59810845     0.06400
H1240       H  0.71926810  0.42482170  0.60728473     0.07300
C1241       C  0.86608402  0.98187168  0.61098796    -0.22400
C1242       C  0.82139003  0.94823592  0.61658534     0.09600
C1243       C  0.78957425  0.96200445  0.62250832     0.10000
C1244       C  0.80402183  0.00927177  0.62375510    -0.17300
C1245       C  0.84938343  0.04311085  0.61892871    -0.27700
C1246       C  0.88063490  0.02903835  0.61207335     0.18300
C1247       C  0.81084038  0.89962151  0.61840632     0.12300
C1248       C  0.74048468  0.92682751  0.62754581    -0.12100
H1249       H  0.78005965  0.01992911  0.62892108     0.12600
C1250       C  0.93037130  0.06218330  0.60695908    -0.22900
H1251       H  0.89058350  0.97125329  0.60662524     0.08200
C1252       C  0.80618939  0.87222835  0.60110886     0.04600
C1253       C  0.80133233  0.82835562  0.60396018    -0.20100
C1254       C  0.80110053  0.81104457  0.62371100    -0.12400
C1255       C  0.80212470  0.83742245  0.64103800     0.13300
C1256       C  0.80838845  0.88169941  0.63810316    -0.22800
C1257       C  0.80669897  0.88939879  0.57966765    -0.05900
H1258       H  0.79936835  0.80824170  0.59063028     0.14800
C1259       C  0.79548869  0.82001319  0.66285936    -0.16100
H1260       H  0.81133688  0.90255539  0.65139018     0.09100
H1261       H  0.93722866  0.05696861  0.59077687     0.07000
H1262       H  0.95296120  0.05562447  0.61719717     0.08200
H1263       H  0.94028947  0.09864766  0.60878529     0.07200
H1264       H  0.73930240  0.90588522  0.64098009     0.02100
H1265       H  0.72435954  0.90379761  0.61412349     0.02600
H1266       H  0.71981412  0.94336156  0.63131201     0.06100
H1267       H  0.80172933  0.86330725  0.56788648     0.05100
H1268       H  0.84015312  0.92097332  0.57660603    -0.00700
H1269       H  0.77852389  0.89741606  0.57798838     0.00800
H1270       H  0.82864958  0.83839223  0.67129249     0.04400
H1271       H  0.78139159  0.78233873  0.66387845     0.06400
H1272       H  0.77002094  0.82673244  0.67069216     0.07300
C1273       C  0.62996216  0.78438367  0.22927181    -0.22400
C1274       C  0.60898335  0.80595179  0.23949761     0.09600
C1275       C  0.59101574  0.82888179  0.22772980     0.10000
C1276       C  0.59775417  0.83280175  0.20626502    -0.17300
C1277       C  0.62233734  0.81463271  0.19633402    -0.27700
C1278       C  0.63658734  0.78818781  0.20785775     0.18300
C1279       C  0.61226218  0.80935239  0.26241600     0.12300
C1280       C  0.56543742  0.84986638  0.23783200    -0.12100
H1281       H  0.58631487  0.85260041  0.19740284     0.12600
C1282       C  0.65903832  0.76413206  0.19759778    -0.22900
H1283       H  0.64343216  0.76649083  0.23822583     0.08200
C1284       C  0.58934961  0.77051479  0.27543718     0.04600
C1285       C  0.59949906  0.77518288  0.29664551    -0.20100
C1286       C  0.63218821  0.81773858  0.30516506    -0.12400
C1287       C  0.65239198  0.85721431  0.29230585     0.13300
C1288       C  0.64280730  0.85228653  0.27115263    -0.22800
C1289       C  0.55459886  0.72410379  0.26697267    -0.05900
H1290       H  0.58365269  0.74492437  0.30641215     0.14800
C1291       C  0.68391740  0.90522734  0.30029161    -0.16100
H1292       H  0.66024550  0.88225068  0.26126776     0.09100
H1293       H  0.66602872  0.74322090  0.20871491     0.07000
H1294       H  0.69230435  0.78963089  0.19059564     0.08200
H1295       H  0.63591081  0.74064471  0.18546319     0.07200
H1296       H  0.58831469  0.87751916  0.24862662     0.02100
H1297       H  0.53543662  0.82283579  0.24640618     0.02600
H1298       H  0.55253613  0.86524331  0.22635555     0.06100
H1299       H  0.53905369  0.69778045  0.27931007     0.05100
H1300       H  0.57117602  0.71201455  0.25578752    -0.00700
H1301       H  0.52653112  0.72668467  0.25919439     0.00800
H1302       H  0.71886018  0.91878993  0.29369592     0.04400
H1303       H  0.68644208  0.90692798  0.31727325     0.06400
H1304       H  0.67044864  0.92810238  0.29556260     0.07300
C1305       C  0.74957356  0.73495461  0.47074229    -0.22400
C1306       C  0.73010695  0.73473849  0.48979358     0.09600
C1307       C  0.69803162  0.75015851  0.49111428     0.10000
C1308       C  0.68609870  0.76551000  0.47327458    -0.17300
C1309       C  0.70609839  0.76655936  0.45416091    -0.27700
C1310       C  0.73794748  0.75057762  0.45290616     0.18300
C1311       C  0.74430502  0.71892850  0.50827757     0.12300
C1312       C  0.67645219  0.75033544  0.51137991    -0.12100
H1313       H  0.66124623  0.77709112  0.47427060     0.12600
C1314       C  0.75870102  0.74844361  0.43276898    -0.22900
H1315       H  0.77394649  0.72274526  0.46985752     0.08200
C1316       C  0.72153681  0.67226147  0.51421954     0.04600
C1317       C  0.73474172  0.65948295  0.53243714    -0.20100
C1318       C  0.77083633  0.69214141  0.54487563    -0.12400
C1319       C  0.79502229  0.73889211  0.53819408     0.13300
C1320       C  0.78101428  0.75150730  0.52012610    -0.22800
C1321       C  0.68321680  0.63598496  0.50133079    -0.05900
H1322       H  0.71630000  0.62358085  0.53700361     0.14800
C1323       C  0.83617036  0.77587070  0.54953127    -0.16100
H1324       H  0.79875140  0.78718213  0.51516668     0.09100
H1325       H  0.78095443  0.73284762  0.43442569     0.07000
H1326       H  0.78036309  0.78377025  0.42678819     0.08200
H1327       H  0.73101284  0.72735689  0.42161059     0.07200
H1328       H  0.70364777  0.77282622  0.52246578     0.02100
H1329       H  0.65728146  0.71478589  0.51764773     0.02600
H1330       H  0.65203835  0.76339781  0.50977165     0.06100
H1331       H  0.66899321  0.60106694  0.50813094     0.05100
H1332       H  0.69635824  0.63540159  0.48574063    -0.00700
H1333       H  0.65483436  0.64376327  0.49999303     0.00800
H1334       H  0.86321047  0.76614243  0.55073683     0.04400
H1335       H  0.82595253  0.78080808  0.56506104     0.06400
H1336       H  0.85147562  0.80965086  0.54153470     0.07300
C1337       C  0.87694797  0.01433861  0.37535257    -0.22400
C1338       C  0.86350466  0.04223924  0.38569898     0.09600
C1339       C  0.81902819  0.02228920  0.39434096     0.10000
C1340       C  0.78854592  0.97454987  0.39205540    -0.17300
C1341       C  0.80165290  0.94685483  0.38106926    -0.27700
C1342       C  0.84691977  0.96699877  0.37303366     0.18300
C1343       C  0.89713658  0.09232008  0.38653001     0.12300
C1344       C  0.80365365  0.05150002  0.40555283    -0.12100
H1345       H  0.75398666  0.95910333  0.39824558     0.12600
C1346       C  0.86531514  0.93980958  0.36216291    -0.22900
H1347       H  0.91136499  0.02979314  0.36894858     0.08200
C1348       C  0.93210814  0.11081841  0.40154539     0.04600
C1349       C  0.96930353  0.15577580  0.39909185    -0.20100
C1350       C  0.97304642  0.18223532  0.38164168    -0.12400
C1351       C  0.93609540  0.16481395  0.36741855     0.13300
C1352       C  0.89877895  0.11994025  0.37000744    -0.22800
C1353       C  0.93150122  0.08217086  0.41951505    -0.05900
H1354       H  0.99738209  0.16885922  0.41005739     0.14800
C1355       C  0.93485643  0.19221820  0.34931197    -0.16100
H1356       H  0.87168174  0.10563815  0.35854848     0.09100
H1357       H  0.89694840  0.94511895  0.37006182     0.07000
H1358       H  0.87408339  0.95196321  0.34604140     0.08200
H1359       H  0.84087117  0.90233941  0.36200322     0.07200
H1360       H  0.80510972  0.07829373  0.39503944     0.02100
H1361       H  0.82654457  0.06852795  0.41890299     0.02600
H1362       H  0.76783121  0.03059317  0.41131009     0.06100
H1363       H  0.96157424  0.10182350  0.42979110     0.05100
H1364       H  0.93237890  0.05133339  0.41391570    -0.00700
H1365       H  0.89976245  0.07091748  0.42868334     0.00800
H1366       H  0.93619984  0.17548430  0.33480550     0.04400
H1367       H  0.96337868  0.22843575  0.34941178     0.06400
H1368       H  0.90231561  0.19326895  0.34965121     0.07300
C1369       C  0.36200133  0.55709772  0.38473401    -0.22400
C1370       C  0.39767831  0.54829196  0.38013516     0.09600
C1371       C  0.38709200  0.50251589  0.37631755     0.10000
C1372       C  0.34096757  0.46650733  0.37732133    -0.17300
C1373       C  0.30541744  0.47528374  0.38240911    -0.27700
C1374       C  0.31607619  0.52134544  0.38586978     0.18300
C1375       C  0.44578541  0.58771990  0.38014652     0.12300
C1376       C  0.42447982  0.49175819  0.37129104    -0.12100
H1377       H  0.33278151  0.43125004  0.37475014     0.12600
C1378       C  0.27994270  0.53426415  0.39057035    -0.22900
H1379       H  0.37014519  0.59225764  0.38763619     0.08200
C1380       C  0.46260719  0.62069950  0.36418930     0.04600
C1381       C  0.50582862  0.66083756  0.36632198    -0.20100
C1382       C  0.53264173  0.66892322  0.38411553    -0.12400
C1383       C  0.51756349  0.63356395  0.39913757     0.13300
C1384       C  0.47394885  0.59399121  0.39716361    -0.22800
C1385       C  0.43443187  0.61403781  0.34514334    -0.05900
H1386       H  0.51727856  0.68733654  0.35461342     0.14800
C1387       C  0.54657937  0.63607202  0.41732435    -0.16100
H1388       H  0.46146829  0.56813372  0.40919689     0.09100
H1389       H  0.28148059  0.55910582  0.37886005     0.07000
H1390       H  0.28658676  0.55076350  0.40594443     0.08200
H1391       H  0.24450503  0.50446095  0.39043699     0.07200
H1392       H  0.44904898  0.50194928  0.38430628     0.02100
H1393       H  0.44319429  0.51098247  0.35730542     0.02600
H1394       H  0.41032170  0.45439922  0.36839397     0.06100
H1395       H  0.45303490  0.64253112  0.33396523     0.05100
H1396       H  0.40176084  0.61282575  0.34924674    -0.00700
H1397       H  0.42653109  0.58123748  0.33752340     0.00800
H1398       H  0.53013991  0.63833277  0.43174302     0.04400
H1399       H  0.58219798  0.66561444  0.41651162     0.06400
H1400       H  0.54937806  0.60443859  0.41783417     0.07300
C1401       C  0.90296403  0.83876865  0.39651458    -0.22400
C1402       C  0.91701431  0.81668949  0.38247227     0.09600
C1403       C  0.88580663  0.78711196  0.36748404     0.10000
C1404       C  0.84130118  0.78108031  0.36661492    -0.17300
C1405       C  0.82776637  0.80477721  0.38010161    -0.27700
C1406       C  0.85932133  0.83441547  0.39518521     0.18300
C1407       C  0.96637878  0.83063852  0.38175375     0.12300
C1408       C  0.90030481  0.76387551  0.35177853    -0.12100
H1409       H  0.81757700  0.75928909  0.35480965     0.12600
C1410       C  0.85034780  0.86524178  0.40898784    -0.22900
H1411       H  0.92751166  0.86226658  0.40767916     0.08200
C1412       C  0.99855088  0.87280428  0.37259596     0.04600
C1413       C  0.04464437  0.88422988  0.37117503    -0.20100
C1414       C  0.05951468  0.85461423  0.37863842    -0.12400
C1415       C  0.02737978  0.81248007  0.38801869     0.13300
C1416       C  0.98109931  0.80117472  0.38958553    -0.22800
C1417       C  0.98408330  0.90529835  0.36384178    -0.05900
H1418       H  0.06934214  0.91643818  0.36396146     0.14800
C1419       C  0.03998640  0.77787296  0.39566092    -0.16100
H1420       H  0.95614092  0.76872265  0.39651313     0.09100
H1421       H  0.87642816  0.90181420  0.40594257     0.07000
H1422       H  0.85328700  0.85741380  0.42531104     0.08200
H1423       H  0.81617351  0.86171522  0.40675428     0.07200
H1424       H  0.91068533  0.74107966  0.35962045     0.02100
H1425       H  0.92983065  0.79027695  0.34273758     0.02600
H1426       H  0.87197982  0.74254130  0.34092077     0.06100
H1427       H  0.01346547  0.93611747  0.35673232     0.05100
H1428       H  0.96991528  0.91741036  0.37620065    -0.00700
H1429       H  0.95742134  0.88739129  0.35184100     0.00800
H1430       H  0.03328480  0.77255452  0.41242957     0.04400
H1431       H  0.07642858  0.78871128  0.39285192     0.06400
H1432       H  0.01874157  0.74451558  0.38762860     0.07300
C1433       C  0.38392362  0.83128247  0.36891111    -0.22400
C1434       C  0.41821965  0.85871799  0.38304284     0.09600
C1435       C  0.41094336  0.88712128  0.39669358     0.10000
C1436       C  0.36840258  0.88574418  0.39652938    -0.17300
C1437       C  0.33276633  0.85600653  0.38325474    -0.27700
C1438       C  0.34086832  0.82854488  0.36910841     0.18300
C1439       C  0.45796663  0.85131662  0.38532868     0.12300
C1440       C  0.44724601  0.91711443  0.41204781    -0.12100
H1441       H  0.36208914  0.90628114  0.40751000     0.12600
C1442       C  0.30436514  0.79281906  0.35523193    -0.22900
H1443       H  0.38958898  0.80903370  0.35868669     0.08200
C1444       C  0.45365946  0.81381932  0.39695244     0.04600
C1445       C  0.49103889  0.80633573  0.39826339    -0.20100
C1446       C  0.53270433  0.83522142  0.38814623    -0.12400
C1447       C  0.53744446  0.87359183  0.37688887     0.13300
C1448       C  0.49970544  0.88085904  0.37547337    -0.22800
C1449       C  0.40944859  0.78150019  0.40791410    -0.05900
H1450       H  0.48742202  0.77710106  0.40696553     0.14800
C1451       C  0.58191142  0.90844261  0.36687381    -0.16100
H1452       H  0.50292591  0.90988983  0.36674440     0.09100
H1453       H  0.30031221  0.75850403  0.35866383     0.07000
H1454       H  0.31515470  0.80157060  0.33895559     0.08200
H1455       H  0.27007347  0.78929510  0.35696559     0.07200
H1456       H  0.47914510  0.94197087  0.40384531     0.02100
H1457       H  0.45494402  0.89542870  0.42235758     0.02600
H1458       H  0.43594860  0.93696493  0.42170017     0.06100
H1459       H  0.41220663  0.75440266  0.41655764     0.05100
H1460       H  0.38105141  0.76412358  0.39661714    -0.00700
H1461       H  0.40072529  0.80112902  0.41900538     0.00800
H1462       H  0.57693506  0.90815365  0.34999464     0.04400
H1463       H  0.61075978  0.90218593  0.36995071     0.06400
H1464       H  0.59227897  0.94334500  0.37285671     0.07300
loop_ 
_geom_bond_atom_site_label_1 
_geom_bond_atom_site_label_2 
_geom_bond_distance 
_geom_bond_site_symmetry_2 
_ccdc_geom_bond_type 
O1           Ni7   1.934       .  S
O1           C22   1.273       .  A
O2          Ni25   1.912       .  S
O2           C11   1.270       .  A
O3           Ni7   1.916       .  S
O3          Ni25   1.913       .  S
O3          Ni19   1.918       .  S
O3           H26   0.966       .  S
C4           O21   1.279       .  A
C4           O13   1.277       .  A
C4         C1446   1.479       .  S
O5          Ni24   1.938       .  S
O5           C11   1.274       .  A
O6          Ni24   1.908       .  S
O6            C8   1.270       .  A
Ni7          O10   1.929       .  S
Ni7          O12   1.904       .  S
C8           O18   1.275       .  A
C8         C1382   1.489       .  S
O9          Ni25   1.905       .  S
O9           C15   1.269       .  A
O10          C15   1.274       .  A
C11        C1309   1.488       .  S
O12          C14   1.270       .  A
O13         Ni24   1.921       .  S
C14          O20   1.277       .  A
C14        C1341   1.479       .  S
C15        C1405   1.476       .  S
H16          O17   0.966       .  S
O17         Ni25   1.904       .  S
O17         Ni19   1.908       .  S
O17         Ni24   1.907       .  S
O18         Ni19   1.936       .  S
Ni19         O23   1.921       .  S
Ni19         O21   1.927       .  S
O20         Ni25   1.945       .  S
C22          O23   1.271       .  A
C22        C1286   1.490       .  S
O27         Ni33   1.934       .  S
O27          C48   1.272       .  A
O28         Ni51   1.909       .  S
O28          C37   1.267       .  A
O29         Ni33   1.913       .  S
O29         Ni51   1.910       .  S
O29         Ni45   1.913       .  S
O29          H52   0.966       .  S
C30          O47   1.276       .  A
C30          O39   1.277       .  A
C30        C1222   1.480       .  S
O31         Ni50   1.939       .  S
O31          C37   1.274       .  A
O32         Ni50   1.905       .  S
O32          C34   1.269       .  A
Ni33         O36   1.935       .  S
Ni33         O38   1.903       .  S
C34          O44   1.274       .  A
C34        C1158   1.482       .  S
O35         Ni51   1.922       .  S
O35          C41   1.276       .  A
O36          C41   1.276       .  A
C37        C1318   1.501       .  S
O38          C40   1.267       .  A
O39         Ni50   1.928       .  S
C40          O46   1.273       .  A
C40        C1181   1.479       .  S
C41        C1254   1.496       .  S
H42          O43   0.966       .  S
O43         Ni51   1.915       .  S
O43         Ni45   1.910       .  S
O43         Ni50   1.912       .  S
O44         Ni45   1.933       .  S
Ni45         O49   1.914       .  S
Ni45         O47   1.924       .  S
O46         Ni51   1.940       .  S
C48          O49   1.269       .  A
C48        C1117   1.483       .  S
O53         Ni59   1.919       .  S
O53          C74   1.267       .  A
O54         Ni77   1.904       .  S
O54          C63   1.268       .  A
O55         Ni59   1.913       .  S
O55         Ni77   1.907       .  S
O55         Ni71   1.916       .  S
O55          H78   0.966       .  S
C56          O73   1.275       .  A
C56          O65   1.276       .  A
C56        C1062   1.473       .  S
O57         Ni76   1.937       .  S
O57          C63   1.273       .  A
O58         Ni76   1.906       .  S
O58          C60   1.269       .  A
Ni59         O62   1.920       .  S
Ni59         O64   1.899       .  S
C60          O70   1.272       .  A
C60        C1437   1.478       .  S
O61         Ni77   1.920       .  S
O61          C67   1.275       .  A
O62          C67   1.274       .  A
C63         C989   1.476       .  S
O64          C66   1.267       .  A
O65         Ni76   1.925       .  S
C66          O72   1.274       .  A
C66        C1414   1.474       .  S
C67        C1021   1.484   1_565  S
H68          O69   0.963       .  S
O69         Ni77   1.914       .  S
O69         Ni71   1.909       .  S
O69         Ni76   1.910       .  S
O70         Ni71   1.928       .  S
Ni71         O75   1.914       .  S
Ni71         O73   1.921       .  S
O72         Ni77   1.939       .  S
C74          O75   1.267       .  A
C74        C1085   1.476       .  S
O79         Ni85   1.928       .  S
O79         C100   1.273       .  A
O80        Ni103   1.905       .  S
O80          C89   1.266       .  A
O81         Ni85   1.909       .  S
O81        Ni103   1.910       .  S
O81         Ni97   1.918       .  S
O81         H104   0.966       .  S
C82          O99   1.278       .  A
C82          O91   1.276       .  A
C82        C1149   1.481       .  S
O83        Ni102   1.932       .  S
O83          C89   1.273       .  A
O84        Ni102   1.909       .  S
O84          C86   1.269       .  A
Ni85         O88   1.937       .  S
Ni85         O90   1.908       .  S
C86          O96   1.274       .  A
C86         C934   1.488       .  S
O87        Ni103   1.911       .  S
O87          C93   1.272       .  A
O88          C93   1.275       .  A
C89         C998   1.491       .  S
O90          C92   1.268       .  A
O91        Ni102   1.919       .  S
C92          O98   1.275       .  A
C92         C957   1.479       .  S
C93        C1190   1.494   1_545  S
H94          O95   0.966       .  S
O95        Ni103   1.908       .  S
O95         Ni97   1.908       .  S
O95        Ni102   1.908       .  S
O96         Ni97   1.936       .  S
Ni97        O101   1.915       .  S
Ni97         O99   1.927       .  S
O98        Ni103   1.947       .  S
C100        O101   1.270       .  A
C100        C893   1.482       .  S
O105       Ni111   1.930       .  S
O105        C126   1.270       .  A
O106       Ni129   1.905       .  S
O106        C115   1.267       .  A
O107       Ni111   1.913       .  S
O107       Ni129   1.906       .  S
O107       Ni123   1.917       .  S
O107        H130   0.966       .  S
C108        O125   1.278       .  A
C108        O117   1.277       .  A
C108       C1373   1.480       .  S
O109       Ni128   1.942       .  S
O109        C115   1.274       .  A
O110       Ni128   1.904       .  S
O110        C112   1.270       .  A
Ni111       O114   1.928       .  S
Ni111       O116   1.906       .  S
C112        O122   1.272       .  A
C112       C1053   1.496       .  S
O113       Ni129   1.915       .  S
O113        C119   1.274       .  A
O114        C119   1.277       .  A
C115        C838   1.489       .  S
O116        C118   1.268       .  A
O117       Ni128   1.928       .  S
C118        O124   1.272       .  A
C118       C1030   1.475       .  S
C119       C1350   1.485   1_455  S
H120        O121   0.966       .  S
O121       Ni129   1.911       .  S
O121       Ni123   1.911       .  S
O121       Ni128   1.910       .  S
O122       Ni123   1.931       .  S
Ni123       O127   1.917       .  S
Ni123       O125   1.927       .  S
O124       Ni129   1.933       .  S
C126        O127   1.269       .  A
C126        C870   1.485       .  S
O131       Ni137   1.930       .  S
O131        C152   1.273       .  A
O132       Ni155   1.904       .  S
O132        C141   1.265       .  A
O133       Ni137   1.918       .  S
O133       Ni155   1.910       .  S
O133       Ni149   1.925       .  S
O133        H156   0.966       .  S
C134        O151   1.274       .  A
C134        O143   1.276       .  A
C134        C925   1.484       .  S
O135       Ni154   1.937       .  S
O135        C141   1.272       .  A
O136       Ni154   1.907       .  S
O136        C138   1.270       .  A
Ni137       O140   1.938       .  S
Ni137       O142   1.910       .  S
C138        O148   1.274       .  A
C138       C1213   1.483       .  S
O139       Ni155   1.920       .  S
O139        C145   1.270       .  A
O140        C145   1.275       .  A
C141        C829   1.476       .  S
O142        C144   1.271       .  A
O143       Ni154   1.929       .  S
C144        O150   1.278       .  A
C144       C1245   1.483       .  S
C145        C966   1.495   1_655  S
H146        O147   0.966       .  S
O147       Ni155   1.915       .  S
O147       Ni149   1.914       .  S
O147       Ni154   1.920       .  S
O148       Ni149   1.932       .  S
Ni149       O153   1.911       .  S
Ni149       O151   1.922       .  S
O150       Ni155   1.950       .  S
C152        O153   1.268       .  A
C152        C806   1.485       .  S
O157       Ni163   1.925       .  S
O157        C178   1.271       .  A
O158       Ni181   1.913       .  S
O158        C167   1.270       .  A
O159       Ni163   1.916       .  S
O159       Ni181   1.917       .  S
O159       Ni175   1.923       .  S
O159        H182   0.966       .  S
C160        O177   1.275       .  A
C160        O169   1.277       .  A
C160        C701   1.474       .  S
O161       Ni180   1.938       .  S
O161        C167   1.274       .  A
O162       Ni180   1.908       .  S
O162        C164   1.270       .  A
Ni163       O166   1.933       .  S
Ni163       O168   1.905       .  S
C164        O174   1.273       .  A
C164        C669   1.480       .  S
O165       Ni181   1.917       .  S
O165        C171   1.272       .  A
O166        C171   1.273       .  A
C167        C765   1.488       .  S
O168        C170   1.269       .  A
O169       Ni180   1.925       .  S
C170        O176   1.278       .  A
C170        C646   1.478       .  S
C171        C742   1.485       .  S
H172        O173   0.964       .  S
O173       Ni181   1.908       .  S
O173       Ni175   1.905       .  S
O173       Ni180   1.910       .  S
O174       Ni175   1.929       .  S
Ni175       O179   1.913       .  S
Ni175       O177   1.918       .  S
O176       Ni181   1.953       .  S
C178        O179   1.268       .  A
C178        C861   1.480       .  S
O183       Ni189   1.929       .  S
O183        C204   1.272       .  A
O184       Ni207   1.918       .  S
O184        C193   1.272       .  A
O185       Ni189   1.907       .  S
O185       Ni207   1.912       .  S
O185       Ni201   1.919       .  S
O185        H208   0.967       .  S
C186        O203   1.279       .  A
C186        O195   1.279       .  A
C186        C582   1.483       .  S
O187       Ni206   1.935       .  S
O187        C193   1.273       .  A
O188       Ni206   1.909       .  S
O188        C190   1.270       .  A
Ni189       O192   1.931       .  S
Ni189       O194   1.911       .  S
C190        O200   1.274       .  A
C190        C509   1.501       .  S
O191       Ni207   1.925       .  S
O191        C197   1.278       .  A
O192        C197   1.275       .  A
C193        C774   1.505       .  S
O194        C196   1.269       .  A
O195       Ni206   1.926       .  S
C196        O202   1.274       .  A
C196        C550   1.479       .  S
C197        C605   1.501       .  S
H198        O199   0.966       .  S
O199       Ni207   1.917       .  S
O199       Ni201   1.905       .  S
O199       Ni206   1.898       .  S
O200       Ni201   1.936       .  S
Ni201       O205   1.916       .  S
Ni201       O203   1.930       .  S
O202       Ni207   1.944       .  S
C204        O205   1.269       .  A
C204        C902   1.479       .  S
O209       Ni215   1.924       .  S
O209        C230   1.272       .  A
O210       Ni233   1.905       .  S
O210        C219   1.269       .  A
O211       Ni215   1.908       .  S
O211       Ni233   1.909       .  S
O211       Ni227   1.926       .  S
O211        H234   0.966       .  S
C212        O229   1.278       .  A
C212        O221   1.278       .  A
C212        C477   1.482       .  S
O213       Ni232   1.929       .  S
O213        C219   1.271       .  A
O214       Ni232   1.907       .  S
O214        C216   1.269       .  A
Ni215       O218   1.935       .  S
Ni215       O220   1.907       .  S
C216        O226   1.271       .  A
C216        C710   1.480       .  S
O217       Ni233   1.922       .  S
O217        C223   1.273       .  A
O218        C223   1.275       .  A
C219        C422   1.492       .  S
O220        C222   1.270       .  A
O221       Ni232   1.926       .  S
C222        O228   1.276       .  A
C222        C733   1.474       .  S
C223        C454   1.502   1_455  S
H224        O225   0.966       .  S
O225       Ni233   1.912       .  S
O225       Ni227   1.898       .  S
O225       Ni232   1.905       .  S
O226       Ni227   1.926       .  S
Ni227       O231   1.903       .  S
Ni227       O229   1.932       .  S
O228       Ni233   1.947       .  S
C230        O231   1.266       .  A
C230       C1094   1.474       .  S
O235       Ni241   1.930       .  S
O235        C256   1.273       .  A
O236       Ni259   1.900       .  S
O236        C245   1.265       .  A
O237       Ni241   1.910       .  S
O237       Ni259   1.910       .  S
O237       Ni253   1.920       .  S
O237        H260   0.966       .  S
C238        O255   1.278       .  A
C238        O247   1.275       .  A
C238        C518   1.487       .  S
O239       Ni258   1.934       .  S
O239        C245   1.272       .  A
O240       Ni258   1.911       .  S
O240        C242   1.270       .  A
Ni241       O244   1.938       .  S
Ni241       O246   1.907       .  S
C242        O252   1.274       .  A
C242        C381   1.487       .  S
O243       Ni259   1.916       .  S
O243        C249   1.273       .  A
O244        C249   1.276       .  A
C245        C413   1.477       .  S
O246        C248   1.268       .  A
O247       Ni258   1.923       .  S
C248        O254   1.273       .  A
C248        C349   1.479       .  S
C249        C541   1.490   1_655  S
H250        O251   0.966       .  S
O251       Ni259   1.912       .  S
O251       Ni253   1.907       .  S
O251       Ni258   1.909       .  S
O252       Ni253   1.930       .  S
Ni253       O257   1.913       .  S
Ni253       O255   1.931       .  S
O254       Ni259   1.942       .  S
C256        O257   1.270       .  A
C256       C1126   1.482       .  S
O261       Ni267   1.936       .  S
O261        C282   1.273       .  A
O262       Ni285   1.911       .  S
O262        C271   1.269       .  A
O263       Ni267   1.914       .  S
O263       Ni285   1.916       .  S
O263       Ni279   1.919       .  S
O263        H286   0.967       .  S
C264        O281   1.277       .  A
C264        O273   1.278       .  A
C264        C678   1.486       .  S
O265       Ni284   1.942       .  S
O265        C271   1.274       .  A
O266       Ni284   1.911       .  S
O266        C268   1.270       .  A
Ni267       O270   1.939       .  S
Ni267       O272   1.909       .  S
C268        O278   1.275       .  A
C268        C486   1.488       .  S
O269       Ni285   1.913       .  S
O269        C275   1.272       .  A
O270        C275   1.277       .  A
C271        C317   1.501       .  S
O272        C274   1.270       .  A
O273       Ni284   1.928       .  S
C274        O280   1.275       .  A
C274        C445   1.483       .  S
C275        C637   1.494   1_565  S
H276        O277   0.966       .  S
O277       Ni285   1.909       .  S
O277       Ni279   1.911       .  S
O277       Ni284   1.908       .  S
O278       Ni279   1.936       .  S
Ni279       O283   1.918       .  S
Ni279       O281   1.923       .  S
O280       Ni285   1.947       .  S
C282        O283   1.270       .  A
C282       C1277   1.486       .  S
O287       Ni293   1.933       .  S
O287        C308   1.273       .  A
O288       Ni311   1.911       .  S
O288        C297   1.269       .  A
O289       Ni293   1.913       .  S
O289       Ni311   1.912       .  S
O289       Ni305   1.917       .  S
O289        H312   0.966       .  S
C290        O307   1.276       .  A
C290        O299   1.275       .  A
C290        C390   1.478       .  S
O291       Ni310   1.934       .  S
O291        C297   1.272       .  A
O292       Ni310   1.911       .  S
O292        C294   1.270       .  A
Ni293       O296   1.931       .  S
Ni293       O298   1.911       .  S
C294        O304   1.273       .  A
C294        C573   1.485       .  S
O295       Ni311   1.922       .  S
O295        C301   1.274       .  A
O296        C301   1.276       .  A
C297        C326   1.480       .  S
O298        C300   1.271       .  A
O299       Ni310   1.922       .  S
C300        O306   1.277       .  A
C300        C614   1.487       .  S
C301        C358   1.501   1_545  S
H302        O303   0.966       .  S
O303       Ni311   1.918       .  S
O303       Ni305   1.913       .  S
O303       Ni310   1.916       .  S
O304       Ni305   1.932       .  S
Ni305       O309   1.913       .  S
Ni305       O307   1.926       .  S
O306       Ni311   1.948       .  S
C308        O309   1.268       .  A
C308        C797   1.488       .  S
C313        C314   1.399       .  A
C313        C318   1.407       .  A
C313        H323   1.084       .  S
C314        C319   1.488   1_564  S
C314        C315   1.409       .  A
C315        C316   1.407       .  A
C315        C320   1.506       .  S
C316        C317   1.411       .  A
C316        H321   1.083       .  S
C317        C318   1.424       .  A
C318        C322   1.508       .  S
C319        C324   1.412   1_545  A
C319        C328   1.403       .  A
C320        H336   1.110   1_565  S
C320        H337   1.110   1_554  S
C320        H338   1.111       .  S
C322        H333   1.110       .  S
C322        H334   1.111       .  S
C322        H335   1.109       .  S
C324        C325   1.405   1_565  A
C324        C329   1.506       .  S
C325        C326   1.401       .  A
C325        H330   1.080       .  S
C326        C327   1.416       .  A
C327        C328   1.407       .  A
C327        C331   1.507       .  S
C328        H332   1.084   1_556  S
C329        H339   1.111       .  S
C329        H340   1.110       .  S
C329        H341   1.110       .  S
C331        H342   1.110       .  S
C331        H343   1.108       .  S
C331        H344   1.110       .  S
C345        C346   1.403       .  A
C345        C350   1.405       .  A
C345        H355   1.084       .  S
C346        C351   1.489       .  S
C346        C347   1.414       .  A
C347        C348   1.406       .  A
C347        C352   1.508       .  S
C348        C349   1.404       .  A
C348        H353   1.084       .  S
C349        C350   1.416       .  A
C350        C354   1.508       .  S
C351        C356   1.410       .  A
C351        C360   1.402       .  A
C352        H368   1.109       .  S
C352        H369   1.111       .  S
C352        H370   1.111       .  S
C354        H365   1.110       .  S
C354        H366   1.110       .  S
C354        H367   1.108       .  S
C356        C357   1.402       .  A
C356        C361   1.508       .  S
C357        C358   1.410       .  A
C357        H362   1.083       .  S
C358        C359   1.422       .  A
C359        C360   1.409       .  A
C359        C363   1.502       .  S
C360        H364   1.084       .  S
C361        H371   1.111       .  S
C361        H372   1.109       .  S
C361        H373   1.110       .  S
C363        H374   1.107       .  S
C363        H375   1.110   1_565  S
C363        H376   1.111       .  S
C377        C378   1.401       .  A
C377        C382   1.405       .  A
C377        H387   1.085       .  S
C378        C383   1.484       .  S
C378        C379   1.410       .  A
C379        C380   1.405       .  A
C379        C384   1.506       .  S
C380        C381   1.407       .  A
C380        H385   1.084       .  S
C381        C382   1.420       .  A
C382        C386   1.508       .  S
C383        C388   1.411       .  A
C383        C392   1.400       .  A
C384        H400   1.110       .  S
C384        H401   1.110       .  S
C384        H402   1.111       .  S
C386        H397   1.111       .  S
C386        H398   1.110       .  S
C386        H399   1.107       .  S
C388        C389   1.409       .  A
C388        C393   1.505       .  S
C389        C390   1.405       .  A
C389        H394   1.084       .  S
C390        C391   1.417       .  A
C391        C392   1.400       .  A
C391        C395   1.509       .  S
C392        H396   1.085       .  S
C393        H403   1.111       .  S
C393        H404   1.110       .  S
C393        H405   1.110       .  S
C395        H406   1.110       .  S
C395        H407   1.106       .  S
C395        H408   1.110       .  S
C409        C410   1.399       .  A
C409        C414   1.402       .  A
C409        H419   1.085   1_556  S
C410        C415   1.476   1_656  S
C410        C411   1.409   1_655  A
C411        C412   1.402   1_455  A
C411        C416   1.507       .  S
C412        C413   1.406       .  A
C412        H417   1.084       .  S
C413        C414   1.418       .  A
C414        C418   1.508       .  S
C415        C420   1.407       .  A
C415        C424   1.396       .  A
C416        H432   1.110       .  S
C416        H433   1.110       .  S
C416        H434   1.111       .  S
C418        H429   1.111       .  S
C418        H430   1.110       .  S
C418        H431   1.106       .  S
C420        C421   1.403       .  A
C420        C425   1.506   1_455  S
C421        C422   1.409       .  A
C421        H426   1.082       .  S
C422        C423   1.425       .  A
C423        C424   1.402       .  A
C423        C427   1.510       .  S
C424        H428   1.085       .  S
C425        H435   1.111       .  S
C425        H436   1.110       .  S
C425        H437   1.110   1_655  S
C427        H438   1.110       .  S
C427        H439   1.110       .  S
C427        H440   1.111       .  S
C441        C442   1.404       .  A
C441        C446   1.406       .  A
C441        H451   1.084       .  S
C442        C447   1.492       .  S
C442        C443   1.414       .  A
C443        C444   1.407       .  A
C443        C448   1.507       .  S
C444        C445   1.405       .  A
C444        H449   1.084       .  S
C445        C446   1.416       .  A
C446        C450   1.508       .  S
C447        C452   1.411       .  A
C447        C456   1.404       .  A
C448        H464   1.110       .  S
C448        H465   1.110       .  S
C448        H466   1.111       .  S
C450        H461   1.110       .  S
C450        H462   1.111       .  S
C450        H463   1.108       .  S
C452        C453   1.402       .  A
C452        C457   1.509       .  S
C453        C454   1.410       .  A
C453        H458   1.083       .  S
C454        C455   1.422       .  A
C455        C456   1.412       .  A
C455        C459   1.505       .  S
C456        H460   1.084       .  S
C457        H467   1.111       .  S
C457        H468   1.109       .  S
C457        H469   1.111       .  S
C459        H470   1.110       .  S
C459        H471   1.109       .  S
C459        H472   1.111       .  S
C473        C474   1.400       .  A
C473        C478   1.401       .  A
C473        H483   1.085       .  S
C474        C479   1.489       .  S
C474        C475   1.413       .  A
C475        C476   1.412       .  A
C475        C480   1.504       .  S
C476        C477   1.406       .  A
C476        H481   1.084       .  S
C477        C478   1.418       .  A
C478        C482   1.509       .  S
C479        C484   1.412       .  A
C479        C488   1.402       .  A
C480        H496   1.110       .  S
C480        H497   1.110       .  S
C480        H498   1.111       .  S
C482        H493   1.111       .  S
C482        H494   1.110       .  S
C482        H495   1.104       .  S
C484        C485   1.407       .  A
C484        C489   1.506       .  S
C485        C486   1.406       .  A
C485        H490   1.084       .  S
C486        C487   1.418       .  A
C487        C488   1.407       .  A
C487        C491   1.507       .  S
C488        H492   1.084       .  S
C489        H499   1.111       .  S
C489        H500   1.110       .  S
C489        H501   1.110       .  S
C491        H502   1.110       .  S
C491        H503   1.108       .  S
C491        H504   1.111       .  S
C505        C506   1.403       .  A
C505        C510   1.412       .  A
C505        H515   1.084       .  S
C506        C511   1.490       .  S
C506        C507   1.409       .  A
C507        C508   1.402       .  A
C507        C512   1.508       .  S
C508        C509   1.411       .  A
C508        H513   1.084       .  S
C509        C510   1.422       .  A
C510        C514   1.507       .  S
C511        C516   1.412       .  A
C511        C520   1.402       .  A
C512        H528   1.110       .  S
C512        H529   1.110       .  S
C512        H530   1.111       .  S
C514        H525   1.110       .  S
C514        H526   1.111       .  S
C514        H527   1.110       .  S
C516        C517   1.407       .  A
C516        C521   1.506       .  S
C517        C518   1.405       .  A
C517        H522   1.084       .  S
C518        C519   1.418       .  A
C519        C520   1.407       .  A
C519        C523   1.508       .  S
C520        H524   1.084       .  S
C521        H531   1.111       .  S
C521        H532   1.110       .  S
C521        H533   1.110       .  S
C523        H534   1.110       .  S
C523        H535   1.111       .  S
C523        H536   1.109       .  S
C537        C538   1.401       .  A
C537        C542   1.403       .  A
C537        H547   1.085       .  S
C538        C543   1.490       .  S
C538        C539   1.414       .  A
C539        C540   1.410       .  A
C539        C544   1.506       .  S
C540        C541   1.408       .  A
C540        H545   1.084       .  S
C541        C542   1.420       .  A
C542        C546   1.508       .  S
C543        C548   1.414       .  A
C543        C552   1.402       .  A
C544        H560   1.109       .  S
C544        H561   1.110       .  S
C544        H562   1.111       .  S
C546        H557   1.111       .  S
C546        H558   1.110       .  S
C546        H559   1.107       .  S
C548        C549   1.408   1_565  A
C548        C553   1.506       .  S
C549        C550   1.404       .  A
C549        H554   1.084       .  S
C550        C551   1.417       .  A
C551        C552   1.403   1_545  A
C551        C555   1.508       .  S
C552        H556   1.085       .  S
C553        H563   1.111       .  S
C553        H564   1.109       .  S
C553        H565   1.110       .  S
C555        H566   1.111       .  S
C555        H567   1.104       .  S
C555        H568   1.110       .  S
C569        C570   1.400       .  A
C569        C574   1.405       .  A
C569        H579   1.085       .  S
C570        C575   1.487       .  S
C570        C571   1.410       .  A
C571        C572   1.407       .  A
C571        C576   1.506       .  S
C572        C573   1.407       .  A
C572        H577   1.084       .  S
C573        C574   1.422       .  A
C574        C578   1.509       .  S
C575        C580   1.411       .  A
C575        C584   1.404       .  A
C576        H592   1.110       .  S
C576        H593   1.110       .  S
C576        H594   1.111       .  S
C578        H589   1.110       .  S
C578        H590   1.110       .  S
C578        H591   1.103       .  S
C580        C581   1.401       .  A
C580        C585   1.508       .  S
C581        C582   1.403       .  A
C581        H586   1.084       .  S
C582        C583   1.419       .  A
C583        C584   1.411       .  A
C583        C587   1.507       .  S
C584        H588   1.084       .  S
C585        H595   1.111       .  S
C585        H596   1.110       .  S
C585        H597   1.110       .  S
C587        H598   1.110       .  S
C587        H599   1.107       .  S
C587        H600   1.111       .  S
C601        C602   1.399       .  A
C601        C606   1.404       .  A
C601        H611   1.084       .  S
C602        C607   1.493       .  S
C602        C603   1.412       .  A
C603        C604   1.411       .  A
C603        C608   1.505       .  S
C604        C605   1.410       .  A
C604        H609   1.084       .  S
C605        C606   1.426       .  A
C606        C610   1.510       .  S
C607        C612   1.413       .  A
C607        C616   1.403       .  A
C608        H624   1.109       .  S
C608        H625   1.110       .  S
C608        H626   1.111       .  S
C610        H621   1.111       .  S
C610        H622   1.109       .  S
C610        H623   1.110       .  S
C612        C613   1.408   1_455  A
C612        C617   1.506       .  S
C613        C614   1.405       .  A
C613        H618   1.084       .  S
C614        C615   1.422       .  A
C615        C616   1.407   1_655  A
C615        C619   1.510       .  S
C616        H620   1.085       .  S
C617        H627   1.111       .  S
C617        H628   1.109       .  S
C617        H629   1.110       .  S
C619        H630   1.111       .  S
C619        H631   1.103       .  S
C619        H632   1.110       .  S
C633        C634   1.403       .  A
C633        C638   1.410       .  A
C633        H643   1.084       .  S
C634        C639   1.490       .  S
C634        C635   1.412       .  A
C635        C636   1.403       .  A
C635        C640   1.508       .  S
C636        C637   1.407       .  A
C636        H641   1.084       .  S
C637        C638   1.420       .  A
C638        C642   1.507       .  S
C639        C644   1.414       .  A
C639        C648   1.405       .  A
C640        H656   1.109       .  S
C640        H657   1.110       .  S
C640        H658   1.111       .  S
C642        H653   1.111       .  S
C642        H654   1.110       .  S
C642        H655   1.110   1_545  S
C644        C645   1.404   1_655  A
C644        C649   1.508       .  S
C645        C646   1.403       .  A
C645        H650   1.085       .  S
C646        C647   1.415       .  A
C647        C648   1.406   1_455  A
C647        C651   1.508       .  S
C648        H652   1.084       .  S
C649        H659   1.111   1_655  S
C649        H660   1.109       .  S
C649        H661   1.110       .  S
C651        H662   1.111       .  S
C651        H663   1.109       .  S
C651        H664   1.110       .  S
C665        C666   1.400       .  A
C665        C670   1.404       .  A
C665        H675   1.085       .  S
C666        C671   1.486       .  S
C666        C667   1.411       .  A
C667        C668   1.406       .  A
C667        C672   1.505       .  S
C668        C669   1.404       .  A
C668        H673   1.084       .  S
C669        C670   1.421       .  A
C670        C674   1.510       .  S
C671        C676   1.411       .  A
C671        C680   1.402       .  A
C672        H688   1.110       .  S
C672        H689   1.110       .  S
C672        H690   1.111       .  S
C674        H685   1.111       .  S
C674        H686   1.110       .  S
C674        H687   1.103       .  S
C676        C677   1.401       .  A
C676        C681   1.508       .  S
C677        C678   1.405       .  A
C677        H682   1.084       .  S
C678        C679   1.421       .  A
C679        C680   1.409       .  A
C679        C683   1.508       .  S
C680        H684   1.084       .  S
C681        H691   1.111       .  S
C681        H692   1.110       .  S
C681        H693   1.110       .  S
C683        H694   1.110       .  S
C683        H695   1.106       .  S
C683        H696   1.111       .  S
C697        C698   1.403       .  A
C697        C702   1.406       .  A
C697        H707   1.084       .  S
C698        C703   1.483       .  S
C698        C699   1.412       .  A
C699        C700   1.400       .  A
C699        C704   1.508       .  S
C700        C701   1.402       .  A
C700        H705   1.085       .  S
C701        C702   1.415       .  A
C702        C706   1.507       .  S
C703        C708   1.411       .  A
C703        C712   1.399       .  A
C704        H720   1.110       .  S
C704        H721   1.110       .  S
C704        H722   1.111       .  S
C706        H717   1.111       .  S
C706        H718   1.110       .  S
C706        H719   1.108       .  S
C708        C709   1.405       .  A
C708        C713   1.506       .  S
C709        C710   1.406       .  A
C709        H714   1.084       .  S
C710        C711   1.422       .  A
C711        C712   1.403       .  A
C711        C715   1.510       .  S
C712        H716   1.085       .  S
C713        H723   1.111       .  S
C713        H724   1.110       .  S
C713        H725   1.110       .  S
C715        H726   1.110       .  S
C715        H727   1.102       .  S
C715        H728   1.111       .  S
C729        C730   1.405       .  A
C729        C734   1.406   1_545  A
C729        H739   1.084       .  S
C730        C735   1.489       .  S
C730        C731   1.415   1_545  A
C731        C732   1.403       .  A
C731        C736   1.509   1_565  S
C732        C733   1.402       .  A
C732        H737   1.085       .  S
C733        C734   1.414       .  A
C734        C738   1.507       .  S
C735        C740   1.412       .  A
C735        C744   1.403       .  A
C736        H752   1.109       .  S
C736        H753   1.110       .  S
C736        H754   1.111   1_545  S
C738        H749   1.110       .  S
C738        H750   1.110       .  S
C738        H751   1.109       .  S
C740        C741   1.404       .  A
C740        C745   1.508       .  S
C741        C742   1.407       .  A
C741        H746   1.084       .  S
C742        C743   1.419       .  A
C743        C744   1.406       .  A
C743        C747   1.507       .  S
C744        H748   1.084       .  S
C745        H755   1.111       .  S
C745        H756   1.109       .  S
C745        H757   1.110       .  S
C747        H758   1.109       .  S
C747        H759   1.103       .  S
C747        H760   1.111       .  S
C761        C762   1.402       .  A
C761        C766   1.407       .  A
C761        H771   1.085   1_554  S
C762        C767   1.490   1_554  S
C762        C763   1.412       .  A
C763        C764   1.407       .  A
C763        C768   1.506       .  S
C764        C765   1.405       .  A
C764        H769   1.083       .  S
C765        C766   1.420       .  A
C766        C770   1.508       .  S
C767        C772   1.410       .  A
C767        C776   1.398       .  A
C768        H784   1.110       .  S
C768        H785   1.110       .  S
C768        H786   1.110       .  S
C770        H781   1.111       .  S
C770        H782   1.110       .  S
C770        H783   1.106       .  S
C772        C773   1.409       .  A
C772        C777   1.506       .  S
C773        C774   1.412       .  A
C773        H778   1.084       .  S
C774        C775   1.428       .  A
C775        C776   1.406       .  A
C775        C779   1.509       .  S
C776        H780   1.084       .  S
C777        H787   1.111       .  S
C777        H788   1.110       .  S
C777        H789   1.110       .  S
C779        H790   1.110       .  S
C779        H791   1.110       .  S
C779        H792   1.111       .  S
C793        C794   1.402       .  A
C793        C798   1.409       .  A
C793        H803   1.084       .  S
C794        C799   1.489       .  S
C794        C795   1.412       .  A
C795        C796   1.404       .  A
C795        C800   1.508       .  S
C796        C797   1.405       .  A
C796        H801   1.084       .  S
C797        C798   1.423       .  A
C798        C802   1.508       .  S
C799        C804   1.412       .  A
C799        C808   1.402       .  A
C800        H816   1.110       .  S
C800        H817   1.110       .  S
C800        H818   1.111       .  S
C802        H813   1.110       .  S
C802        H814   1.110       .  S
C802        H815   1.103       .  S
C804        C805   1.403       .  A
C804        C809   1.507       .  S
C805        C806   1.405       .  A
C805        H810   1.084       .  S
C806        C807   1.421       .  A
C807        C808   1.409       .  A
C807        C811   1.509       .  S
C808        H812   1.084       .  S
C809        H819   1.111       .  S
C809        H820   1.110       .  S
C809        H821   1.110       .  S
C811        H822   1.111       .  S
C811        H823   1.104       .  S
C811        H824   1.111       .  S
C825        C826   1.402   1_455  A
C825        C830   1.405   1_455  A
C825        H835   1.084       .  S
C826        C831   1.487   1_655  S
C826        C827   1.412       .  A
C827        C828   1.407       .  A
C827        C832   1.506       .  S
C828        C829   1.403       .  A
C828        H833   1.084       .  S
C829        C830   1.416       .  A
C830        C834   1.508   1_655  S
C831        C836   1.410       .  A
C831        C840   1.401       .  A
C832        H848   1.110       .  S
C832        H849   1.110       .  S
C832        H850   1.111       .  S
C834        H845   1.110       .  S
C834        H846   1.110       .  S
C834        H847   1.108   1_455  S
C836        C837   1.405       .  A
C836        C841   1.507       .  S
C837        C838   1.407       .  A
C837        H842   1.084       .  S
C838        C839   1.420       .  A
C839        C840   1.407       .  A
C839        C843   1.508       .  S
C840        H844   1.084       .  S
C841        H851   1.111       .  S
C841        H852   1.110       .  S
C841        H853   1.110   1_455  S
C843        H854   1.111       .  S
C843        H855   1.106       .  S
C843        H856   1.110       .  S
C857        C858   1.401       .  A
C857        C862   1.402       .  A
C857        H867   1.085       .  S
C858        C863   1.485       .  S
C858        C859   1.412       .  A
C859        C860   1.408       .  A
C859        C864   1.505       .  S
C860        C861   1.405       .  A
C860        H865   1.084       .  S
C861        C862   1.416       .  A
C862        C866   1.508       .  S
C863        C868   1.411       .  A
C863        C872   1.401       .  A
C864        H880   1.110       .  S
C864        H881   1.110       .  S
C864        H882   1.111       .  S
C866        H877   1.110       .  S
C866        H878   1.110       .  S
C866        H879   1.109       .  S
C868        C869   1.408       .  A
C868        C873   1.505       .  S
C869        C870   1.407       .  A
C869        H874   1.084       .  S
C870        C871   1.418       .  A
C871        C872   1.404       .  A
C871        C875   1.508       .  S
C872        H876   1.084       .  S
C873        H883   1.111       .  S
C873        H884   1.110       .  S
C873        H885   1.110       .  S
C875        H886   1.109       .  S
C875        H887   1.110       .  S
C875        H888   1.111       .  S
C889        C890   1.406       .  A
C889        C894   1.412       .  A
C889        H899   1.084       .  S
C890        C895   1.485       .  S
C890        C891   1.411       .  A
C891        C892   1.399       .  A
C891        C896   1.510       .  S
C892        C893   1.404       .  A
C892        H897   1.085       .  S
C893        C894   1.418       .  A
C894        C898   1.507       .  S
C895        C900   1.414       .  A
C895        C904   1.399       .  A
C896        H912   1.110       .  S
C896        H913   1.108       .  S
C896        H914   1.111       .  S
C898        H909   1.110       .  S
C898        H910   1.111       .  S
C898        H911   1.106       .  S
C900        C901   1.411       .  A
C900        C905   1.506       .  S
C901        C902   1.406       .  A
C901        H906   1.084       .  S
C902        C903   1.417       .  A
C903        C904   1.399       .  A
C903        C907   1.509       .  S
C904        H908   1.085       .  S
C905        H915   1.111       .  S
C905        H916   1.110       .  S
C905        H917   1.109       .  S
C907        H918   1.110       .  S
C907        H919   1.108       .  S
C907        H920   1.110       .  S
C921        C922   1.400       .  A
C921        C926   1.402       .  A
C921        H931   1.085       .  S
C922        C927   1.487       .  S
C922        C923   1.412       .  A
C923        C924   1.411       .  A
C923        C928   1.505       .  S
C924        C925   1.407       .  A
C924        H929   1.084       .  S
C925        C926   1.419       .  A
C926        C930   1.510       .  S
C927        C932   1.412       .  A
C927        C936   1.401       .  A
C928        H944   1.110       .  S
C928        H945   1.110       .  S
C928        H946   1.111       .  S
C930        H941   1.111       .  S
C930        H942   1.110       .  S
C930        H943   1.105       .  S
C932        C933   1.406       .  A
C932        C937   1.506       .  S
C933        C934   1.406       .  A
C933        H938   1.084       .  S
C934        C935   1.420       .  A
C935        C936   1.407       .  A
C935        C939   1.508       .  S
C936        H940   1.084       .  S
C937        H947   1.111       .  S
C937        H948   1.110       .  S
C937        H949   1.110       .  S
C939        H950   1.110       .  S
C939        H951   1.108       .  S
C939        H952   1.111       .  S
C953        C954   1.405       .  A
C953        C958   1.408       .  A
C953        H963   1.084       .  S
C954        C959   1.493       .  S
C954        C955   1.416       .  A
C955        C956   1.405       .  A
C955        C960   1.508       .  S
C956        C957   1.403       .  A
C956        H961   1.085       .  S
C957        C958   1.415       .  A
C958        C962   1.507       .  S
C959        C964   1.412       .  A
C959        C968   1.402       .  A
C960        H976   1.109       .  S
C960        H977   1.111       .  S
C960        H978   1.111       .  S
C962        H973   1.110       .  S
C962        H974   1.110       .  S
C962        H975   1.109       .  S
C964        C965   1.405       .  A
C964        C969   1.508       .  S
C965        C966   1.409       .  A
C965        H970   1.084       .  S
C966        C967   1.424       .  A
C967        C968   1.408       .  A
C967        C971   1.508       .  S
C968        H972   1.085       .  S
C969        H979   1.111       .  S
C969        H980   1.109       .  S
C969        H981   1.110       .  S
C971        H982   1.110       .  S
C971        H983   1.098   1_455  S
C971        H984   1.111       .  S
C985        C986   1.400   1_545  A
C985        C990   1.402   1_545  A
C985        H995   1.085       .  S
C986        C991   1.482   1_565  S
C986        C987   1.411       .  A
C987        C988   1.405       .  A
C987        C992   1.506       .  S
C988        C989   1.404       .  A
C988        H993   1.084       .  S
C989        C990   1.416       .  A
C990        C994   1.507   1_565  S
C991        C996   1.409       .  A
C991       C1000   1.400       .  A
C992       H1008   1.110       .  S
C992       H1009   1.110       .  S
C992       H1010   1.111       .  S
C994       H1005   1.111       .  S
C994       H1006   1.110       .  S
C994       H1007   1.105   1_545  S
C996        C997   1.401       .  A
C996       C1001   1.507       .  S
C997        C998   1.409       .  A
C997       H1002   1.084       .  S
C998        C999   1.422       .  A
C999       C1000   1.407       .  A
C999       C1003   1.508       .  S
C1000      H1004   1.084   1_545  S
C1001      H1011   1.111       .  S
C1001      H1012   1.110       .  S
C1001      H1013   1.110   1_545  S
C1003      H1014   1.111       .  S
C1003      H1015   1.110       .  S
C1003      H1016   1.109       .  S
C1017      C1018   1.400       .  A
C1017      C1022   1.403       .  A
C1017      H1027   1.085       .  S
C1018      C1023   1.483       .  S
C1018      C1019   1.410       .  A
C1019      C1020   1.406       .  A
C1019      C1024   1.506       .  S
C1020      C1021   1.407       .  A
C1020      H1025   1.084       .  S
C1021      C1022   1.419       .  A
C1022      C1026   1.508       .  S
C1023      C1028   1.411       .  A
C1023      C1032   1.401       .  A
C1024      H1040   1.110       .  S
C1024      H1041   1.110       .  S
C1024      H1042   1.111       .  S
C1026      H1037   1.110       .  S
C1026      H1038   1.110       .  S
C1026      H1039   1.108       .  S
C1028      C1029   1.408       .  A
C1028      C1033   1.505       .  S
C1029      C1030   1.404       .  A
C1029      H1034   1.084       .  S
C1030      C1031   1.416       .  A
C1031      C1032   1.401       .  A
C1031      C1035   1.509       .  S
C1032      H1036   1.085       .  S
C1033      H1043   1.111       .  S
C1033      H1044   1.110       .  S
C1033      H1045   1.110       .  S
C1035      H1046   1.110       .  S
C1035      H1047   1.107       .  S
C1035      H1048   1.111       .  S
C1049      C1050   1.399       .  A
C1049      C1054   1.408       .  A
C1049      H1059   1.084       .  S
C1050      C1055   1.482       .  S
C1050      C1051   1.408       .  A
C1051      C1052   1.402       .  A
C1051      C1056   1.507       .  S
C1052      C1053   1.410       .  A
C1052      H1057   1.084       .  S
C1053      C1054   1.424       .  A
C1054      C1058   1.508       .  S
C1055      C1060   1.412       .  A
C1055      C1064   1.403       .  A
C1056      H1072   1.110       .  S
C1056      H1073   1.110       .  S
C1056      H1074   1.111       .  S
C1058      H1069   1.110       .  S
C1058      H1070   1.111       .  S
C1058      H1071   1.110       .  S
C1060      C1061   1.402       .  A
C1060      C1065   1.508       .  S
C1061      C1062   1.402       .  A
C1061      H1066   1.085       .  S
C1062      C1063   1.415       .  A
C1063      C1064   1.407       .  A
C1063      C1067   1.507       .  S
C1064      H1068   1.084       .  S
C1065      H1075   1.111       .  S
C1065      H1076   1.110       .  S
C1065      H1077   1.110       .  S
C1067      H1078   1.110       .  S
C1067      H1079   1.108       .  S
C1067      H1080   1.110       .  S
C1081      C1082   1.398       .  A
C1081      C1086   1.397       .  A
C1081      H1091   1.085       .  S
C1082      C1087   1.478       .  S
C1082      C1083   1.411       .  A
C1083      C1084   1.408       .  A
C1083      C1088   1.505       .  S
C1084      C1085   1.405       .  A
C1084      H1089   1.084       .  S
C1085      C1086   1.418       .  A
C1086      C1090   1.510       .  S
C1087      C1092   1.410       .  A
C1087      C1096   1.403       .  A
C1088      H1104   1.110       .  S
C1088      H1105   1.109       .  S
C1088      H1106   1.111       .  S
C1090      H1101   1.110       .  S
C1090      H1102   1.111       .  S
C1090      H1103   1.107       .  S
C1092      C1093   1.398       .  A
C1092      C1097   1.509       .  S
C1093      C1094   1.403       .  A
C1093      H1098   1.085       .  S
C1094      C1095   1.417       .  A
C1095      C1096   1.407       .  A
C1095      C1099   1.508       .  S
C1096      H1100   1.084       .  S
C1097      H1107   1.111       .  S
C1097      H1108   1.110       .  S
C1097      H1109   1.108       .  S
C1099      H1110   1.110       .  S
C1099      H1111   1.105       .  S
C1099      H1112   1.110       .  S
C1113      C1114   1.402       .  A
C1113      C1118   1.404       .  A
C1113      H1123   1.085       .  S
C1114      C1119   1.488       .  S
C1114      C1115   1.413       .  A
C1115      C1116   1.408       .  A
C1115      C1120   1.506       .  S
C1116      C1117   1.405       .  A
C1116      H1121   1.084       .  S
C1117      C1118   1.417       .  A
C1118      C1122   1.507       .  S
C1119      C1124   1.413       .  A
C1119      C1128   1.401       .  A
C1120      H1136   1.109       .  S
C1120      H1137   1.110       .  S
C1120      H1138   1.111       .  S
C1122      H1133   1.111       .  S
C1122      H1134   1.110       .  S
C1122      H1135   1.108       .  S
C1124      C1125   1.409       .  A
C1124      C1129   1.505       .  S
C1125      C1126   1.406       .  A
C1125      H1130   1.084       .  S
C1126      C1127   1.417       .  A
C1127      C1128   1.401       .  A
C1127      C1131   1.509       .  S
C1128      H1132   1.085       .  S
C1129      H1139   1.111       .  S
C1129      H1140   1.109       .  S
C1129      H1141   1.110       .  S
C1131      H1142   1.110       .  S
C1131      H1143   1.108       .  S
C1131      H1144   1.111       .  S
C1145      C1146   1.402       .  A
C1145      C1150   1.408       .  A
C1145      H1155   1.084       .  S
C1146      C1151   1.482       .  S
C1146      C1147   1.411       .  A
C1147      C1148   1.400       .  A
C1147      C1152   1.509       .  S
C1148      C1149   1.404       .  A
C1148      H1153   1.084       .  S
C1149      C1150   1.419       .  A
C1150      C1154   1.508       .  S
C1151      C1156   1.409       .  A
C1151      C1160   1.399       .  A
C1152      H1168   1.110       .  S
C1152      H1169   1.110       .  S
C1152      H1170   1.111       .  S
C1154      H1165   1.111       .  S
C1154      H1166   1.110       .  S
C1154      H1167   1.106       .  S
C1156      C1157   1.405       .  A
C1156      C1161   1.506       .  S
C1157      C1158   1.408       .  A
C1157      H1162   1.084       .  S
C1158      C1159   1.422       .  A
C1159      C1160   1.403       .  A
C1159      C1163   1.510       .  S
C1160      H1164   1.085       .  S
C1161      H1171   1.111       .  S
C1161      H1172   1.110       .  S
C1161      H1173   1.110       .  S
C1163      H1174   1.110       .  S
C1163      H1175   1.102       .  S
C1163      H1176   1.111       .  S
C1177      C1178   1.402       .  A
C1177      C1182   1.404   1_455  A
C1177      H1187   1.085       .  S
C1178      C1183   1.489       .  S
C1178      C1179   1.413       .  A
C1179      C1180   1.406   1_455  A
C1179      C1184   1.507       .  S
C1180      C1181   1.405       .  A
C1180      H1185   1.084       .  S
C1181      C1182   1.419       .  A
C1182      C1186   1.510       .  S
C1183      C1188   1.411       .  A
C1183      C1192   1.401       .  A
C1184      H1200   1.109       .  S
C1184      H1201   1.110       .  S
C1184      H1202   1.111       .  S
C1186      H1197   1.110       .  S
C1186      H1198   1.111       .  S
C1186      H1199   1.104       .  S
C1188      C1189   1.408       .  A
C1188      C1193   1.506       .  S
C1189      C1190   1.409       .  A
C1189      H1194   1.083       .  S
C1190      C1191   1.422       .  A
C1191      C1192   1.403       .  A
C1191      C1195   1.509       .  S
C1192      H1196   1.084       .  S
C1193      H1203   1.111       .  S
C1193      H1204   1.109       .  S
C1193      H1205   1.110       .  S
C1195      H1206   1.109       .  S
C1195      H1207   1.110       .  S
C1195      H1208   1.111       .  S
C1209      C1210   1.403       .  A
C1209      C1214   1.406       .  A
C1209      H1219   1.084       .  S
C1210      C1215   1.488       .  S
C1210      C1211   1.413       .  A
C1211      C1212   1.405       .  A
C1211      C1216   1.507       .  S
C1212      C1213   1.405       .  A
C1212      H1217   1.084       .  S
C1213      C1214   1.417       .  A
C1214      C1218   1.507       .  S
C1215      C1220   1.413       .  A
C1215      C1224   1.402       .  A
C1216      H1232   1.109       .  S
C1216      H1233   1.110       .  S
C1216      H1234   1.111       .  S
C1218      H1229   1.111       .  S
C1218      H1230   1.110       .  S
C1218      H1231   1.108       .  S
C1220      C1221   1.409       .  A
C1220      C1225   1.505       .  S
C1221      C1222   1.405       .  A
C1221      H1226   1.084       .  S
C1222      C1223   1.418       .  A
C1223      C1224   1.402       .  A
C1223      C1227   1.509       .  S
C1224      H1228   1.085       .  S
C1225      H1235   1.111       .  S
C1225      H1236   1.110       .  S
C1225      H1237   1.110       .  S
C1227      H1238   1.110       .  S
C1227      H1239   1.106       .  S
C1227      H1240   1.111       .  S
C1241      C1242   1.400       .  A
C1241      C1246   1.403   1_565  A
C1241      H1251   1.085       .  S
C1242      C1247   1.489       .  S
C1242      C1243   1.413       .  A
C1243      C1244   1.408   1_565  A
C1243      C1248   1.506       .  S
C1244      C1245   1.405       .  A
C1244      H1249   1.084       .  S
C1245      C1246   1.420       .  A
C1246      C1250   1.508       .  S
C1247      C1252   1.411       .  A
C1247      C1256   1.400       .  A
C1248      H1264   1.109       .  S
C1248      H1265   1.110       .  S
C1248      H1266   1.111       .  S
C1250      H1261   1.110       .  S
C1250      H1262   1.111       .  S
C1250      H1263   1.101       .  S
C1252      C1253   1.408       .  A
C1252      C1257   1.506       .  S
C1253      C1254   1.408       .  A
C1253      H1258   1.080       .  S
C1254      C1255   1.423       .  A
C1255      C1256   1.404       .  A
C1255      C1259   1.509       .  S
C1256      H1260   1.085       .  S
C1257      H1267   1.111       .  S
C1257      H1268   1.109       .  S
C1257      H1269   1.110       .  S
C1259      H1270   1.110       .  S
C1259      H1271   1.107       .  S
C1259      H1272   1.111       .  S
C1273      C1274   1.404       .  A
C1273      C1278   1.407       .  A
C1273      H1283   1.084       .  S
C1274      C1279   1.495       .  S
C1274      C1275   1.416       .  A
C1275      C1276   1.410       .  A
C1275      C1280   1.506       .  S
C1276      C1277   1.405       .  A
C1276      H1281   1.084       .  S
C1277      C1278   1.414       .  A
C1278      C1282   1.507       .  S
C1279      C1284   1.415       .  A
C1279      C1288   1.403       .  A
C1280      H1296   1.109       .  S
C1280      H1297   1.110       .  S
C1280      H1298   1.111       .  S
C1282      H1293   1.111       .  S
C1282      H1294   1.109       .  S
C1282      H1295   1.111       .  S
C1284      C1285   1.411       .  A
C1284      C1289   1.506       .  S
C1285      C1286   1.407       .  A
C1285      H1290   1.084       .  S
C1286      C1287   1.418       .  A
C1287      C1288   1.404       .  A
C1287      C1291   1.508       .  S
C1288      H1292   1.085       .  S
C1289      H1299   1.111       .  S
C1289      H1300   1.109       .  S
C1289      H1301   1.110       .  S
C1291      H1302   1.110       .  S
C1291      H1303   1.107       .  S
C1291      H1304   1.111       .  S
C1305      C1306   1.400       .  A
C1305      C1310   1.406       .  A
C1305      H1315   1.084       .  S
C1306      C1311   1.485       .  S
C1306      C1307   1.411       .  A
C1307      C1308   1.407       .  A
C1307      C1312   1.506       .  S
C1308      C1309   1.406       .  A
C1308      H1313   1.084       .  S
C1309      C1310   1.418       .  A
C1310      C1314   1.503       .  S
C1311      C1316   1.408       .  A
C1311      C1320   1.399       .  A
C1312      H1328   1.110       .  S
C1312      H1329   1.110       .  S
C1312      H1330   1.111       .  S
C1314      H1325   1.111       .  S
C1314      H1326   1.105       .  S
C1314      H1327   1.110       .  S
C1316      C1317   1.405       .  A
C1316      C1321   1.507       .  S
C1317      C1318   1.412       .  A
C1317      H1322   1.083       .  S
C1318      C1319   1.425       .  A
C1319      C1320   1.407       .  A
C1319      C1323   1.508       .  S
C1320      H1324   1.084       .  S
C1321      H1331   1.111       .  S
C1321      H1332   1.110       .  S
C1321      H1333   1.110       .  S
C1323      H1334   1.110       .  S
C1323      H1335   1.106       .  S
C1323      H1336   1.111       .  S
C1337      C1338   1.398       .  A
C1337      C1342   1.398   1_545  A
C1337      H1347   1.085       .  S
C1338      C1343   1.482       .  S
C1338      C1339   1.412       .  A
C1339      C1340   1.411   1_545  A
C1339      C1344   1.504       .  S
C1340      C1341   1.406       .  A
C1340      H1345   1.084       .  S
C1341      C1342   1.418       .  A
C1342      C1346   1.509       .  S
C1343      C1348   1.410       .  A
C1343      C1352   1.402       .  A
C1344      H1360   1.110       .  S
C1344      H1361   1.110       .  S
C1344      H1362   1.111       .  S
C1346      H1357   1.111       .  S
C1346      H1358   1.110       .  S
C1346      H1359   1.104       .  S
C1348      C1349   1.404       .  A
C1348      C1353   1.506       .  S
C1349      C1350   1.407       .  A
C1349      H1354   1.084       .  S
C1350      C1351   1.418       .  A
C1351      C1352   1.405       .  A
C1351      C1355   1.507       .  S
C1352      H1356   1.085       .  S
C1353      H1363   1.111       .  S
C1353      H1364   1.110       .  S
C1353      H1365   1.110       .  S
C1355      H1366   1.110       .  S
C1355      H1367   1.107       .  S
C1355      H1368   1.111       .  S
C1369      C1370   1.402       .  A
C1369      C1374   1.403       .  A
C1369      H1379   1.085       .  S
C1370      C1375   1.489       .  S
C1370      C1371   1.413       .  A
C1371      C1372   1.410       .  A
C1371      C1376   1.505       .  S
C1372      C1373   1.404       .  A
C1372      H1377   1.084       .  S
C1373      C1374   1.417       .  A
C1374      C1378   1.509       .  S
C1375      C1380   1.412       .  A
C1375      C1384   1.402       .  A
C1376      H1392   1.110       .  S
C1376      H1393   1.110       .  S
C1376      H1394   1.111       .  S
C1378      H1389   1.110       .  S
C1378      H1390   1.110       .  S
C1378      H1391   1.106       .  S
C1380      C1381   1.407       .  A
C1380      C1385   1.506       .  S
C1381      C1382   1.407       .  A
C1381      H1386   1.084       .  S
C1382      C1383   1.420       .  A
C1383      C1384   1.405       .  A
C1383      C1387   1.508       .  S
C1384      H1388   1.084       .  S
C1385      H1395   1.111       .  S
C1385      H1396   1.110       .  S
C1385      H1397   1.110       .  S
C1387      H1398   1.110       .  S
C1387      H1399   1.108       .  S
C1387      H1400   1.111       .  S
C1401      C1402   1.398       .  A
C1401      C1406   1.400       .  A
C1401      H1411   1.085       .  S
C1402      C1407   1.480       .  S
C1402      C1403   1.411       .  A
C1403      C1404   1.405       .  A
C1403      C1408   1.506       .  S
C1404      C1405   1.403       .  A
C1404      H1409   1.084       .  S
C1405      C1406   1.421       .  A
C1406      C1410   1.509       .  S
C1407      C1412   1.411       .  A
C1407      C1416   1.403       .  A
C1408      H1424   1.110       .  S
C1408      H1425   1.111       .  S
C1408      H1426   1.111       .  S
C1410      H1421   1.111       .  S
C1410      H1422   1.110       .  S
C1410      H1423   1.102       .  S
C1412      C1413   1.399   1_655  A
C1412      C1417   1.508       .  S
C1413      C1414   1.402       .  A
C1413      H1418   1.085       .  S
C1414      C1415   1.416       .  A
C1415      C1416   1.406   1_455  A
C1415      C1419   1.504       .  S
C1416      H1420   1.084       .  S
C1417      H1427   1.111   1_655  S
C1417      H1428   1.110       .  S
C1417      H1429   1.110       .  S
C1419      H1430   1.110       .  S
C1419      H1431   1.103       .  S
C1419      H1432   1.111       .  S
C1433      C1434   1.399       .  A
C1433      C1438   1.402       .  A
C1433      H1443   1.085       .  S
C1434      C1439   1.482       .  S
C1434      C1435   1.410       .  A
C1435      C1436   1.405       .  A
C1435      C1440   1.506       .  S
C1436      C1437   1.406       .  A
C1436      H1441   1.084       .  S
C1437      C1438   1.421       .  A
C1438      C1442   1.510       .  S
C1439      C1444   1.411       .  A
C1439      C1448   1.402       .  A
C1440      H1456   1.110       .  S
C1440      H1457   1.110       .  S
C1440      H1458   1.111       .  S
C1442      H1453   1.111       .  S
C1442      H1454   1.110       .  S
C1442      H1455   1.103       .  S
C1444      C1445   1.400       .  A
C1444      C1449   1.508       .  S
C1445      C1446   1.404       .  A
C1445      H1450   1.085       .  S
C1446      C1447   1.418       .  A
C1447      C1448   1.408       .  A
C1447      C1451   1.507       .  S
C1448      H1452   1.084       .  S
C1449      H1459   1.111       .  S
C1449      H1460   1.110       .  S
C1449      H1461   1.110       .  S
C1451      H1462   1.110       .  S
C1451      H1463   1.107       .  S
C1451      H1464   1.111       .  S
