geometry optimzed in LAMMPS
_audit_creation_date              2020-12-01 
_audit_creation_method            'lammps2cif' 
_symmetry_space_group_name_H-M    'P1' 
_symmetry_Int_Tables_number       1 
_symmetry_cell_setting            triclinic 
loop_ 
_symmetry_equiv_pos_as_xyz 
  x,y,z 
_cell_length_a                    38.42684136 
_cell_length_b                    38.330505823459326 
_cell_length_c                    42.5685909451323 
_cell_angle_alpha                 89.92729362182469 
_cell_angle_beta                  89.39019492141274 
_cell_angle_gamma                 89.4892328697455 
loop_ 
_atom_site_label 
_atom_site_type_symbol 
_atom_site_fract_x 
_atom_site_fract_y 
_atom_site_fract_z 
_atom_site_charge 
O1          O  0.39098124  0.86848328  0.47606910    -0.82000
C2          C  0.42524890  0.88797632  0.34900843     0.97400
O3          O  0.42403451  0.91226371  0.36916763    -0.71100
O4          O  0.36642583  0.91182173  0.40110340    -0.74700
Al5        Al  0.41358099  0.91213818  0.41330665     1.49000
C6          C  0.34116677  0.89362686  0.41007924     0.92600
O7          O  0.37466579  0.81065428  0.40604341    -0.80900
O8          O  0.47106414  0.82658222  0.43512575    -0.74500
Al9        Al  0.38584987  0.84152355  0.43952876     1.90100
O10         O  0.42787999  0.79944246  0.39161304    -0.73600
O11         O  0.48369600  0.88015176  0.39399056    -0.73400
O12         O  0.43219493  0.85678661  0.35697657    -0.79100
O13         O  0.46109852  0.92016073  0.42406173    -0.77300
O14         O  0.41668908  0.86577553  0.41683960    -1.13400
O15         O  0.40132695  0.92046530  0.45664007    -0.72600
C16         C  0.39319795  0.90096538  0.47950009     0.98100
C17         C  0.39635292  0.79099528  0.39248206     0.94500
Al18       Al  0.45085033  0.84285548  0.39640963     1.55600
O19         O  0.34575041  0.86751460  0.42752890    -0.77200
C20         C  0.48580843  0.90969516  0.40662653     0.98700
C21         C  0.45363276  0.80946580  0.45545805     0.93600
O22         O  0.42062210  0.81075581  0.45628102    -0.82500
O23         O  0.39657650  0.65571830  0.03884478    -0.82000
C24         C  0.43411402  0.63434276  0.16300826     0.97400
O25         O  0.43209030  0.61071997  0.14230073    -0.71100
O26         O  0.37485533  0.60860572  0.11010316    -0.74700
Al27       Al  0.42239950  0.61120193  0.09840673     1.49000
C28         C  0.34886064  0.62714529  0.10329619     0.92600
O29         O  0.38125125  0.71328969  0.10953867    -0.80900
O30         O  0.47699204  0.69718390  0.07614971    -0.74500
Al31       Al  0.39184412  0.68227536  0.07555207     1.90100
O32         O  0.43473298  0.72469763  0.12117674    -0.73600
O33         O  0.49186880  0.64373038  0.11728088    -0.73400
O34         O  0.44047329  0.66588904  0.15558551    -0.79100
O35         O  0.46977441  0.60496216  0.08669298    -0.77300
O36         O  0.42377638  0.65783443  0.09632022    -1.13400
O37         O  0.41173750  0.60381716  0.05542300    -0.72600
C38         C  0.40219578  0.62385069  0.03364608     0.98100
C39         C  0.40322070  0.73370871  0.12086079     0.94500
Al40       Al  0.45804314  0.68077024  0.11565180     1.55600
O41         O  0.35274152  0.65585375  0.08932374    -0.77200
C42         C  0.49386583  0.61436330  0.10437833     0.98700
C43         C  0.45863286  0.71398223  0.05634477     0.93600
O44         O  0.42560362  0.71299139  0.05716977    -0.82500
O45         O  0.30016154  0.56659515  0.29529073    -0.82000
C46         C  0.36661221  0.57205751  0.41070655     0.97400
O47         O  0.34728504  0.54680340  0.40313414    -0.71100
O48         O  0.28622508  0.56464992  0.38293609    -0.74700
Al49       Al  0.32247397  0.53783483  0.36472334     1.49000
C50         C  0.26765174  0.58858015  0.37175621     0.92600
O51         O  0.32999969  0.64320187  0.34467823    -0.80900
O52         O  0.39545350  0.57490438  0.30394441    -0.74500
Al53       Al  0.31661327  0.60301314  0.32093680     1.90100
O54         O  0.38532560  0.63141992  0.34167570    -0.73600
O55         O  0.40164985  0.53610254  0.35655474    -0.73400
O56         O  0.38177934  0.59083026  0.39053404    -0.79100
O57         O  0.35613044  0.50361164  0.35093347    -0.77300
O58         O  0.34178672  0.57385567  0.34427848    -1.13400
O59         O  0.29370980  0.52409802  0.32988190    -0.72600
C60         C  0.28853724  0.53699390  0.30284340     0.98100
C61         C  0.36113180  0.65277577  0.34756929     0.94500
Al62       Al  0.38715172  0.58216583  0.34766979     1.55600
O63         O  0.27573890  0.60286372  0.34620128    -0.77200
C64         C  0.38785311  0.50659095  0.35739713     0.98700
C65         C  0.38154294  0.59555500  0.28435567     0.93600
O66         O  0.35243593  0.61004236  0.29013596    -0.82500
O67         O  0.19231500  0.55763437  0.20646987    -0.82000
C68         C  0.11579813  0.54778716  0.10077273     0.97400
O69         O  0.14668223  0.54010871  0.10887917    -0.71100
O70         O  0.20476427  0.54552737  0.14256664    -0.74700
Al71       Al  0.16033333  0.52379659  0.14924632     1.49000
C72         C  0.21279112  0.57721118  0.14133011     0.92600
O73         O  0.13771490  0.63139396  0.17360126    -0.80900
O74         O  0.08331299  0.57775133  0.20744752    -0.74500
Al75       Al  0.16240397  0.59149187  0.18772402     1.90100
O76         O  0.09154792  0.61088487  0.15084320    -0.73600
O77         O  0.08294655  0.51699484  0.17775078    -0.73400
O78         O  0.09145801  0.55133172  0.12092267    -0.79100
O79         O  0.12258033  0.49163621  0.14906243    -0.77300
O80         O  0.13772837  0.55982971  0.16753424    -1.13400
O81         O  0.17598172  0.50584649  0.18924681    -0.72600
C82         C  0.19290134  0.52465427  0.20832684     0.98100
C83         C  0.11049404  0.63617992  0.15809322     0.94500
Al84       Al  0.09140899  0.56372140  0.16460865     1.55600
O85         O  0.19258645  0.59951285  0.15330792    -0.77200
C86         C  0.09288457  0.49113837  0.16169539     0.98700
C87         C  0.10331240  0.58659034  0.22935172     0.93600
O88         O  0.13557049  0.58888583  0.22450074    -0.82500
O89         O  0.07196895  0.85881681  0.04099481    -0.82000
C90         C  0.03641923  0.87042664  0.16869086     0.97400
O91         O  0.03816416  0.89577744  0.14967115    -0.71100
O92         O  0.09673931  0.89680609  0.11932911    -0.74700
Al93       Al  0.05036022  0.89829160  0.10606392     1.49000
C94         C  0.12257986  0.88091585  0.10788688     0.92600
O95         O  0.09071261  0.79722020  0.10804891    -0.80900
O96         O  0.99408351  0.81400637  0.07924362    -0.74500
Al97       Al  0.07881928  0.82979638  0.07614045     1.90100
O98         O  0.03777743  0.78439060  0.12203070    -0.73600
O99         O  0.97965936  0.86625496  0.12183417    -0.73400
O100        O  0.03051830  0.83975246  0.15918492    -0.79100
O101        O  0.00384685  0.90715949  0.09388411    -0.77300
O102        O  0.04758768  0.85230477  0.10002706    -1.13400
O103        O  0.06407199  0.90955362  0.06402097    -0.72600
C104        C  0.07026858  0.89154304  0.03982248     0.98100
C105        C  0.06962327  0.77619617  0.12032072     0.94500
Al106      Al  0.01329799  0.82825207  0.11876086     1.55600
O107        O  0.11852128  0.85587438  0.08911468    -0.77200
C108        C  0.97878522  0.89667959  0.11046082     0.98700
C109        C  0.01214700  0.79761511  0.05876755     0.93600
O110        O  0.04509098  0.79940544  0.05818077    -0.82500
O111        O  0.08822658  0.63256727  0.47849671    -0.82000
C112        C  0.05804589  0.62389464  0.35479871     0.97400
O113        O  0.07564761  0.60845298  0.37545997    -0.71100
O114        O  0.11324493  0.60366095  0.42543841    -0.74700
Al115      Al  0.06434387  0.60173766  0.41786583     1.49000
C116        C  0.13434159  0.62867769  0.42345477     0.92600
O117        O  0.08131322  0.71402538  0.42863612    -0.80900
O118        O  0.00777626  0.69906308  0.43604107    -0.74500
Al119      Al  0.08158866  0.67046177  0.45023909     1.90100
O120        O  0.05377012  0.70334565  0.38533000    -0.73600
O121        O  0.98662095  0.63671648  0.41250095    -0.73400
O122        O  0.03279330  0.64391655  0.36220323    -0.79100
O123        O  0.01802365  0.58923447  0.40698879    -0.77300
O124        O  0.05578983  0.64704203  0.42319163    -1.13400
O125        O  0.05502265  0.59059250  0.46117216    -0.72600
C126        C  0.07479847  0.60287859  0.48202618     0.98100
C127        C  0.07304996  0.72276181  0.40117945     0.94500
Al128      Al  0.02283284  0.66889470  0.40110076     1.55600
O129        O  0.12374327  0.65957192  0.42799521    -0.77200
C130        C  0.98893660  0.60465489  0.40578236     0.98700
C131        C  0.01666577  0.70068849  0.46475817     0.93600
O132        O  0.04240976  0.68339879  0.47462902    -0.82500
O133        O  0.27864005  0.94892141  0.20759308    -0.82000
C134        C  0.35515254  0.95972624  0.10034839     0.97400
O135        O  0.32383610  0.96551580  0.10870944    -0.71100
O136        O  0.26674364  0.95788447  0.14377878    -0.74700
Al137      Al  0.30928845  0.98293548  0.14887226     1.49000
C138        C  0.25995413  0.92578519  0.14415403     0.92600
O139        O  0.33910231  0.87818665  0.17614620    -0.80900
O140        O  0.38914690  0.93274493  0.20521705    -0.74500
Al141      Al  0.31115109  0.91640936  0.18965827     1.90100
O142        O  0.38139818  0.90091269  0.14841597    -0.73600
O143        O  0.38486979  0.99392180  0.17748284    -0.73400
O144        O  0.37968884  0.96088626  0.11986016    -0.79100
O145        O  0.34605965  0.01763462  0.14732043    -0.77300
O146        O  0.33360316  0.94882838  0.16769033    -1.13400
O147        O  0.29183056  0.00114958  0.18864694    -0.72600
C148        C  0.27516594  0.98183712  0.20799357     0.98100
C149        C  0.36489099  0.87467770  0.15786925     0.94500
Al150      Al  0.37984758  0.94741562  0.16331286     1.55600
O151        O  0.28118812  0.90475579  0.15620025    -0.77200
C152        C  0.37552676  0.01881616  0.16009948     0.98700
C153        C  0.37029981  0.92438921  0.22837282     0.93600
O154        O  0.33780991  0.92221235  0.22605132    -0.82500
O155        O  0.15997660  0.94604424  0.29606425    -0.82000
C156        C  0.09811720  0.94502156  0.41652131     0.97400
O157        O  0.12119177  0.96638519  0.40765943    -0.71100
O158        O  0.18091002  0.94491305  0.38564512    -0.74700
Al159      Al  0.14517656  0.97341661  0.36820114     1.49000
C160        C  0.20152442  0.92590234  0.37020926     0.92600
O161        O  0.14006030  0.87053467  0.35065933    -0.80900
O162        O  0.06984158  0.93199445  0.30936111    -0.74500
Al163      Al  0.14913598  0.90950150  0.32407305     1.90100
O164        O  0.08337166  0.87982264  0.35328321    -0.73600
O165        O  0.06483973  0.97754567  0.35630259    -0.73400
O166        O  0.08170934  0.92693799  0.39711965    -0.79100
O167        O  0.11246859  0.00840289  0.35572405    -0.77300
O168        O  0.12423730  0.93810900  0.34868166    -1.13400
O169        O  0.17371636  0.98591957  0.33121803    -0.72600
C170        C  0.17500399  0.97417543  0.30315410     0.98100
C171        C  0.10962504  0.86002050  0.35681364     0.94500
Al172      Al  0.07880815  0.93003898  0.35346669     1.55600
O173        O  0.19281239  0.91435634  0.34392684    -0.77200
C174        C  0.07974455  0.00667989  0.35679917     0.98700
C175        C  0.08344096  0.91017196  0.29066531     0.93600
O176        O  0.11254528  0.89663471  0.29679569    -0.82500
O177        O  0.62764608  0.42130874  0.22578367    -0.82000
C178        C  0.61325407  0.45380251  0.09873649     0.97400
O179        O  0.58829681  0.45114027  0.11815462    -0.71100
O180        O  0.58809718  0.39245635  0.14865814    -0.74700
Al181      Al  0.58658723  0.43953964  0.16164128     1.49000
C182        C  0.60452969  0.36720622  0.16029119     0.92600
O183        O  0.68654586  0.39955010  0.15695231    -0.80900
O184        O  0.67152893  0.49703734  0.18747056    -0.74500
Al185      Al  0.65569022  0.41245347  0.19022971     1.90100
O186        O  0.69913259  0.45262571  0.14272286    -0.73600
O187        O  0.61852605  0.51110983  0.14643876    -0.73400
O188        O  0.64370218  0.46083225  0.10768285    -0.79100
O189        O  0.57728881  0.48634233  0.17353630    -0.77300
O190        O  0.63257470  0.44314208  0.16680065    -1.13400
O191        O  0.57628820  0.42662581  0.20392004    -0.72600
C192        C  0.59494860  0.42289871  0.22787425     0.98100
C193        C  0.70623159  0.42040181  0.14263373     0.94500
Al194      Al  0.65612022  0.47762399  0.14796690     1.55600
O195        O  0.62921241  0.37226347  0.17895412    -0.77200
C196        C  0.58792516  0.51165093  0.15738043     0.98700
C197        C  0.68908665  0.47914360  0.20697509     0.93600
O198        O  0.68756986  0.44610441  0.20693245    -0.82500
O199        O  0.84218858  0.42529953  0.28859761    -0.82000
C200        C  0.86093638  0.46037513  0.41389351     0.97400
O201        O  0.88536219  0.45829110  0.39376618    -0.71100
O202        O  0.88489150  0.39805759  0.36553939    -0.74700
Al203      Al  0.88555983  0.44471927  0.35046696     1.49000
C204        C  0.86879162  0.37252964  0.35446483     0.92600
O205        O  0.78748262  0.40360316  0.35882733    -0.80900
O206        O  0.79844828  0.50036205  0.32571998    -0.74500
Al207      Al  0.81636370  0.41639533  0.32465414     1.90100
O208        O  0.77292375  0.45664230  0.37221894    -0.73600
O209        O  0.85240535  0.51611358  0.36517072    -0.73400
O210        O  0.82985698  0.46646711  0.40564928    -0.79100
O211        O  0.89302112  0.49142951  0.33668510    -0.77300
O212        O  0.83933432  0.44777250  0.34673364    -1.13400
O213        O  0.89458602  0.42940788  0.30783279    -0.72600
C214        C  0.87465510  0.42446771  0.28482244     0.98100
C215        C  0.76664977  0.42428369  0.37227508     0.94500
Al216      Al  0.81541736  0.48225442  0.36544722     1.55600
O217        O  0.84452309  0.37700560  0.33527684    -0.77200
C218        C  0.88235809  0.51716736  0.35269211     0.98700
C219        C  0.78179002  0.48160646  0.30644196     0.93600
O220        O  0.78293853  0.44869939  0.30829132    -0.82500
O221        O  0.93221957  0.32518073  0.04089781    -0.82000
C222        C  0.91789259  0.38468356  0.16014272     0.97400
O223        O  0.94269018  0.36410698  0.15286784    -0.71100
O224        O  0.92191550  0.30452896  0.12962463    -0.74700
Al225      Al  0.95259131  0.33948450  0.11406214     1.49000
C226        C  0.90246997  0.28535973  0.11365142     0.92600
O227        O  0.85133148  0.35033662  0.08775306    -0.80900
O228        O  0.92139206  0.41794789  0.05415854    -0.74500
Al229      Al  0.89329315  0.33870011  0.06532581     1.90100
O230        O  0.86253693  0.40614009  0.08984218    -0.73600
O231        O  0.95774227  0.41918671  0.10802111    -0.73400
O232        O  0.90064368  0.40061156  0.13951107    -0.79100
O233        O  0.98884676  0.37154837  0.10283063    -0.77300
O234        O  0.91959572  0.36169367  0.09218136    -1.13400
O235        O  0.96752889  0.30997185  0.07914139    -0.72600
C236        C  0.95825841  0.30814146  0.05061921     0.98100
C237        C  0.84109814  0.38146207  0.09191121     0.94500
Al238      Al  0.91165247  0.40716498  0.09731264     1.55600
O239        O  0.89314715  0.29506117  0.08675949    -0.77200
C240        C  0.98664581  0.40362339  0.10933347     0.98700
C241        C  0.90168396  0.40580945  0.03326885     0.93600
O242        O  0.88712494  0.37666646  0.03705348    -0.82500
O243        O  0.92605525  0.19203062  0.46941743    -0.82000
C244        C  0.91530511  0.13256962  0.34994867     0.97400
O245        O  0.93990980  0.15239513  0.35781138    -0.71100
O246        O  0.92145105  0.21328475  0.38181072    -0.74700
Al247      Al  0.94964699  0.17560093  0.39684120     1.49000
C248        C  0.90062440  0.23246115  0.39717633     0.92600
O249        O  0.84568419  0.16851176  0.42250449    -0.80900
O250        O  0.91366893  0.09872990  0.45581566    -0.74500
Al251      Al  0.88772910  0.17907722  0.44478727     1.90100
O252        O  0.85707580  0.11270349  0.41993985    -0.73600
O253        O  0.95120359  0.09568530  0.40257100    -0.73400
O254        O  0.89648546  0.11723118  0.37003638    -0.79100
O255        O  0.98452731  0.14099258  0.40735686    -0.77300
O256        O  0.91474817  0.15506261  0.41812882    -1.13400
O257        O  0.96473030  0.20307208  0.43209994    -0.72600
C258        C  0.95394336  0.20617774  0.46022560     0.98100
C259        C  0.83553093  0.13754290  0.41854173     0.94500
Al260      Al  0.90573142  0.11000444  0.41266958     1.55600
O261        O  0.88868570  0.22208698  0.42305175    -0.77200
C262        C  0.98085399  0.10900324  0.40130443     0.98700
C263        C  0.89418255  0.11182135  0.47697627     0.93600
O264        O  0.88052795  0.14158772  0.47339066    -0.82500
O265        O  0.62583871  0.11058777  0.28832334    -0.82000
C266        C  0.60011713  0.07809931  0.40774077     0.97400
O267        O  0.58694210  0.09554969  0.38573706    -0.71100
O268        O  0.58884735  0.13478706  0.33612371    -0.74700
Al269      Al  0.58586469  0.08552047  0.34352526     1.49000
C270        C  0.61315051  0.15552902  0.34228866     0.92600
O271        O  0.69764021  0.10329826  0.34565440    -0.80900
O272        O  0.68035524  0.02485333  0.33191136    -0.74500
Al273      Al  0.65855989  0.10362922  0.31993856     1.90100
O274        O  0.68479649  0.06827064  0.38422446    -0.73600
O275        O  0.61605617  0.00677813  0.35237837    -0.73400
O276        O  0.62135819  0.05300283  0.40253163    -0.79100
O277        O  0.57007592  0.04024962  0.35335087    -0.77300
O278        O  0.63146596  0.07619789  0.34307673    -1.13400
O279        O  0.58184658  0.07639576  0.29985214    -0.72600
C280        C  0.59866588  0.09497451  0.28040849     0.98100
C281        C  0.70410703  0.09105516  0.37217381     0.94500
Al282      Al  0.64917889  0.04107819  0.36566749     1.55600
O283        O  0.64417394  0.14459346  0.34200745    -0.77200
C284        C  0.58370060  0.01065238  0.35645017     0.98700
C285        C  0.68688570  0.03674321  0.30453061     0.93600
O286        O  0.67559563  0.06613552  0.29588796    -0.82500
O287        O  0.84026822  0.09544919  0.22277379    -0.82000
C288        C  0.86064987  0.05619560  0.09769934     0.97400
O289        O  0.88466746  0.05979820  0.11744190    -0.71100
O290        O  0.88206795  0.12062249  0.14422782    -0.74700
Al291      Al  0.88425931  0.07427676  0.16025446     1.49000
C292        C  0.86539963  0.14640676  0.15504297     0.92600
O293        O  0.78475818  0.11453933  0.15289855    -0.80900
O294        O  0.79867094  0.01864714  0.18714325    -0.74500
Al295      Al  0.81417440  0.10280718  0.18687931     1.90100
O296        O  0.77215133  0.06110406  0.14034674    -0.73600
O297        O  0.85250636  0.00257200  0.14775656    -0.73400
O298        O  0.82954820  0.05065840  0.10648029    -0.79100
O299        O  0.89334375  0.02768816  0.17436302    -0.77300
O300        O  0.83810835  0.07101852  0.16493202    -1.13400
O301        O  0.89275223  0.09039265  0.20249673    -0.72600
C302        C  0.87274186  0.09621004  0.22575117     0.98100
C303        C  0.76503304  0.09336453  0.13951082     0.94500
Al304      Al  0.81515320  0.03603381  0.14713756     1.55600
O305        O  0.84133457  0.14226229  0.17491800    -0.77200
C306        C  0.88252318  0.00151308  0.15942785     0.98700
C307        C  0.78180465  0.03731701  0.20676186     0.93600
O308        O  0.78183817  0.07026042  0.20465256    -0.82500
O309        O  0.54398752  0.32074715  0.46691380    -0.82000
C310        C  0.54684342  0.39257978  0.35256088     0.97400
O311        O  0.52440678  0.36959903  0.35934825    -0.71100
O312        O  0.54535192  0.30819611  0.37783511    -0.74700
Al313      Al  0.51650741  0.34239260  0.39701633     1.49000
C314        C  0.56805412  0.28894854  0.38997236     0.92600
O315        O  0.62037938  0.35105876  0.41746134    -0.80900
O316        O  0.55235163  0.41411566  0.46083617    -0.74500
Al317      Al  0.58044658  0.33694038  0.44129625     1.90100
O318        O  0.60767564  0.40670935  0.41974923    -0.73600
O319        O  0.51079822  0.42145176  0.41166854    -0.73400
O320        O  0.56430745  0.40704380  0.37365945    -0.79100
O321        O  0.48063383  0.37357950  0.41107356    -0.77300
O322        O  0.55119249  0.36245807  0.41832133    -1.13400
O323        O  0.50343589  0.31142121  0.43154817    -0.72600
C324        C  0.51534329  0.30756725  0.45913167     0.98100
C325        C  0.62970199  0.38251488  0.41533859     0.94500
Al326      Al  0.55785604  0.40832807  0.41671722     1.55600
O327        O  0.58011870  0.29613904  0.41641691    -0.77200
C328        C  0.48201510  0.40633204  0.41002348     0.98700
C329        C  0.57388779  0.40013988  0.47928900     0.93600
O330        O  0.58855611  0.37159241  0.47227875    -0.82500
O331        O  0.54163767  0.19677314  0.04331426    -0.82000
C332        C  0.55159659  0.13021718  0.15841989     0.97400
O333        O  0.52633291  0.15055276  0.15204140    -0.71100
O334        O  0.54250116  0.21245581  0.12964193    -0.74700
Al335      Al  0.51523111  0.17514057  0.11378475     1.49000
C336        C  0.56651790  0.22989549  0.11708283     0.92600
O337        O  0.61974563  0.16455737  0.08878447    -0.80900
O338        O  0.54853386  0.10036184  0.05399603    -0.74500
Al339      Al  0.57852973  0.17895488  0.06722107     1.90100
O340        O  0.60813784  0.10931145  0.08718095    -0.73600
O341        O  0.51386685  0.09571006  0.10751873    -0.73400
O342        O  0.56969624  0.11516962  0.13755162    -0.79100
O343        O  0.48028463  0.14099726  0.10304865    -0.77300
O344        O  0.55039731  0.15481673  0.09225973    -1.13400
O345        O  0.49980237  0.20372567  0.07875969    -0.72600
C346        C  0.51256573  0.20937259  0.05158889     0.98100
C347        C  0.62979950  0.13331634  0.09107740     0.94500
Al348      Al  0.55898247  0.10915997  0.09617090     1.55600
O349        O  0.58031787  0.21987955  0.09179066    -0.77200
C350        C  0.48396321  0.10879607  0.10865981     0.98700
C351        C  0.56503026  0.11524247  0.03211125     0.93600
O352        O  0.58218065  0.14286978  0.03664778    -0.82500
C353        C  0.49862543  0.29665497  0.51433217    -0.12500
C354        C  0.49790848  0.28542747  0.48297430     0.04500
C355        C  0.49103990  0.25005014  0.47677276    -0.07800
C356        C  0.49286446  0.22430524  0.99800358    -0.08500
C357        C  0.49639399  0.23436420  0.02953161    -0.03100
C358        C  0.49680900  0.27024812  0.03679324     0.03800
N359        N  0.50223935  0.28170175  0.06826841     0.66300
H360        H  0.50394203  0.32378003  0.51948324     0.15200
H361        H  0.49320334  0.19682057  0.99201231     0.14900
N362        N  0.48919653  0.23764797  0.44524303     0.74000
O363        O  0.53152509  0.29355842  0.07575671    -0.39500
O364        O  0.47640201  0.28660055  0.08630257    -0.39400
O365        O  0.51495756  0.22186903  0.43312153    -0.40100
O366        O  0.46773194  0.22908667  0.92835187    -0.40200
C367        C  0.71266575  0.08141207  0.10738009    -0.12500
C368        C  0.73255555  0.10567172  0.12394637     0.04500
C369        C  0.72000100  0.14045782  0.12623645    -0.07800
C370        C  0.68720002  0.14934335  0.11416379    -0.08500
C371        C  0.66640786  0.12440504  0.09941084    -0.03100
C372        C  0.68022906  0.09045461  0.09498450     0.03800
N373        N  0.66208661  0.06491539  0.07726735     0.66300
H374        H  0.72210718  0.05491531  0.10420306     0.15200
H375        H  0.67746622  0.17563926  0.11738817     0.14900
N376        N  0.73958924  0.16692437  0.14148741     0.74000
O377        O  0.64560630  0.04115792  0.09138344    -0.39500
O378        O  0.66841583  0.06200137  0.04824225    -0.39400
O379        O  0.75642402  0.18867006  0.12520064    -0.40100
O380        O  0.73549093  0.17204707  0.17057249    -0.40200
C381        C  0.57008348  0.20411383  0.34456859    -0.12500
C382        C  0.60416697  0.19217129  0.35027755     0.04500
C383        C  0.62734110  0.21438671  0.36601630    -0.07800
C384        C  0.61524075  0.24630387  0.37800268    -0.08500
C385        C  0.58064376  0.25724037  0.37370138    -0.03100
C386        C  0.55829755  0.23638023  0.35582056     0.03800
N387        N  0.52293752  0.24645576  0.35053313     0.66300
H388        H  0.55193956  0.18785324  0.33206238     0.15200
H389        H  0.63291459  0.26243704  0.39119178     0.14900
N390        N  0.66270082  0.20439447  0.37134268     0.74000
O391        O  0.51541341  0.26329042  0.32601768    -0.39500
O392        O  0.49891952  0.23231914  0.36630723    -0.39400
O393        O  0.68583253  0.21272419  0.35152683    -0.40100
O394        O  0.67160050  0.19347347  0.39807759    -0.40200
C395        C  0.74720000  0.02549546  0.28876806    -0.12500
C396        C  0.71197736  0.01963708  0.28285101     0.04500
C397        C  0.70205533  0.01071537  0.25207872    -0.07800
C398        C  0.72653496  0.01218183  0.22724090    -0.08500
C399        C  0.76106227  0.02200015  0.23279715    -0.03100
C400        C  0.77167622  0.02697187  0.26411888     0.03800
N401        N  0.80635031  0.03762647  0.27088415     0.66300
H402        H  0.75509351  0.03301658  0.31216975     0.15200
H403        H  0.71785659  0.00854818  0.20333601     0.14900
N404        N  0.66674061  0.00206847  0.24560712     0.74000
O405        O  0.81125141  0.06604827  0.28501181    -0.39500
O406        O  0.83119584  0.01611814  0.26784008    -0.39400
O407        O  0.64695191  0.02396135  0.23250168    -0.40100
O408        O  0.65668466  0.97108197  0.24932624    -0.40200
C409        C  0.58947230  0.06246838  0.46377165    -0.12500
C410        C  0.58955647  0.08764140  0.43980432     0.04500
C411        C  0.57823161  0.12206311  0.44653033    -0.07800
C412        C  0.56158660  0.12562738  0.97642913    -0.08500
C413        C  0.56538877  0.10126724  0.00047225    -0.03100
C414        C  0.57894572  0.07150459  0.49431647     0.03800
N415        N  0.57964669  0.04126488  0.01786419     0.66300
H416        H  0.59764241  0.03588463  0.45882482     0.15200
H417        H  0.55263255  0.15194210  0.98168708     0.14900
N418        N  0.57967542  0.14930502  0.42362996     0.74000
O419        O  0.55362842  0.02998235  0.52706559    -0.39500
O420        O  0.60843438  0.02632740  0.02293498    -0.39400
O421        O  0.55270335  0.15705042  0.40838173    -0.40100
O422        O  0.60458666  0.17047719  0.42421851    -0.40200
C423        C  0.55019594  0.10305668  0.24323518    -0.12500
C424        C  0.58617160  0.10179024  0.24877499     0.04500
C425        C  0.60990038  0.11190594  0.22481410    -0.07800
C426        C  0.59732826  0.12239485  0.19607711    -0.08500
C427        C  0.56166740  0.12347437  0.19047593    -0.03100
C428        C  0.53775025  0.11417541  0.21412186     0.03800
N429        N  0.50114449  0.11502825  0.20858880     0.66300
H430        H  0.53181845  0.09626130  0.26168790     0.15200
H431        H  0.61577185  0.12975180  0.17779188     0.14900
N432        N  0.64684083  0.11245121  0.22918170     0.74000
O433        O  0.48711632  0.09080101  0.19335337    -0.39500
O434        O  0.48325193  0.14122922  0.21696490    -0.39400
O435        O  0.66575826  0.09085334  0.21437870    -0.40100
O436        O  0.66055462  0.13991987  0.23945799    -0.40200
C437        C  0.91152039  0.07482620  0.02311782    -0.12500
C438        C  0.88492498  0.09227792  0.50558049     0.04500
C439        C  0.85036107  0.08913069  0.01578145    -0.07800
C440        C  0.84256451  0.07429751  0.04486804    -0.08500
C441        C  0.86898771  0.06163591  0.06419745    -0.03100
C442        C  0.90362161  0.06031277  0.05251914     0.03800
N443        N  0.93108106  0.04505505  0.07049180     0.66300
H444        H  0.93828783  0.07505488  0.01483237     0.15200
H445        H  0.81584914  0.07520848  0.05329847     0.14900
N446        N  0.82217759  0.10622981  0.49854421     0.74000
O447        O  0.93311313  0.01232730  0.07334648    -0.39500
O448        O  0.95542222  0.06384427  0.08039739    -0.39400
O449        O  0.79886623  0.08629337  0.48846920    -0.40100
O450        O  0.81582723  0.13852824  0.50038285    -0.40200
C451        C  0.93065261  0.11002888  0.29688469    -0.12500
C452        C  0.90716680  0.12766908  0.31684500     0.04500
C453        C  0.87355080  0.13587706  0.30645689    -0.07800
C454        C  0.86355081  0.12569786  0.27657714    -0.08500
C455        C  0.88620454  0.10668314  0.25671884    -0.03100
C456        C  0.92030183  0.09921795  0.26690839     0.03800
N457        N  0.94352762  0.07826385  0.24838542     0.66300
H458        H  0.95627463  0.10285455  0.30526872     0.15200
H459        H  0.83758177  0.13270942  0.26897149     0.14900
N460        N  0.84899105  0.15380093  0.32640636     0.74000
O461        O  0.96856086  0.09230240  0.23388737    -0.39500
O462        O  0.94262106  0.04550187  0.25098902    -0.39400
O463        O  0.85728402  0.18181837  0.33985054    -0.40100
O464        O  0.81878168  0.14178980  0.33035312    -0.40200
C465        C  0.78893943  0.09340777  0.41593579    -0.12500
C466        C  0.79890053  0.12846179  0.41178708     0.04500
C467        C  0.77523999  0.15187760  0.39774205    -0.07800
C468        C  0.74401554  0.13923533  0.38559577    -0.08500
C469        C  0.73511082  0.10385022  0.38845494    -0.03100
C470        C  0.75738057  0.08106728  0.40466147     0.03800
N471        N  0.75000585  0.04466906  0.40716577     0.66300
H472        H  0.80657214  0.07478279  0.42665079     0.15200
H473        H  0.72680241  0.15709604  0.37344990     0.14900
N474        N  0.78273991  0.18818386  0.39489690     0.74000
O475        O  0.75466058  0.02506903  0.38366554    -0.39500
O476        O  0.74389566  0.03137063  0.43376328    -0.39400
O477        O  0.78760906  0.20138650  0.36806120    -0.40100
O478        O  0.77669635  0.20797576  0.41800429    -0.40200
C479        C  0.88022101  0.22557751  0.10348007    -0.12500
C480        C  0.89163317  0.25043787  0.12534989     0.04500
C481        C  0.89372702  0.24066627  0.15733552    -0.07800
C482        C  0.88450004  0.20680374  0.16667527    -0.08500
C483        C  0.87408311  0.18199079  0.14456776    -0.03100
C484        C  0.87195539  0.19155089  0.11274799     0.03800
N485        N  0.86078682  0.16712256  0.08967158     0.66300
H486        H  0.87843903  0.23226276  0.07880214     0.15200
H487        H  0.88614155  0.19962075  0.19125678     0.14900
N488        N  0.90506677  0.26471319  0.18063542     0.74000
O489        O  0.82870925  0.16221151  0.08568404    -0.39500
O490        O  0.88259908  0.15411153  0.07056146    -0.39400
O491        O  0.88296833  0.28274463  0.19575033    -0.40100
O492        O  0.93641129  0.26427491  0.18918256    -0.40200
C493        C  0.97546970  0.29150378  0.99659574    -0.12500
C494        C  0.97422034  0.28259751  0.02858021     0.04500
C495        C  0.97633060  0.24698956  0.03705138    -0.07800
C496        C  0.97328318  0.22131440  0.01374319    -0.08500
C497        C  0.97128011  0.22986873  0.48234308    -0.03100
C498        C  0.97722040  0.26494376  0.47392143     0.03800
N499        N  0.97653533  0.27579720  0.44181339     0.66300
H500        H  0.97388050  0.31871031  0.98970328     0.15200
H501        H  0.97093884  0.19420040  0.02064821     0.14900
N502        N  0.97759113  0.23658252  0.06932788     0.74000
O503        O  0.94964879  0.29059484  0.43122803    -0.39500
O504        O  0.00464464  0.27718544  0.42629757    -0.39400
O505        O  0.95585364  0.21501942  0.08003854    -0.40100
O506        O  0.00372762  0.24429606  0.08553168    -0.40200
C507        C  0.86310692  0.40717527  0.23029286    -0.12500
C508        C  0.88801239  0.41507853  0.25312079     0.04500
C509        C  0.92371102  0.41013895  0.24562718    -0.07800
C510        C  0.93350568  0.39817106  0.21555513    -0.08500
C511        C  0.90817811  0.39104072  0.19302103    -0.03100
C512        C  0.87278551  0.39466487  0.20094946     0.03800
N513        N  0.84617718  0.38511791  0.17943404     0.66300
H514        H  0.83548996  0.40969661  0.23530637     0.15200
H515        H  0.96087081  0.39585180  0.20940363     0.14900
N516        N  0.95024316  0.41779460  0.26777328     0.74000
O517        O  0.84100517  0.35335123  0.17348417    -0.39500
O518        O  0.82519292  0.40796783  0.16950412    -0.39400
O519        O  0.96936396  0.39350113  0.27804689    -0.40100
O520        O  0.95872970  0.44907935  0.27237602    -0.40200
C521        C  0.90344610  0.45877541  0.45779054    -0.12500
C522        C  0.86932903  0.45321598  0.44708036     0.04500
C523        C  0.84546092  0.43583289  0.46678819    -0.07800
C524        C  0.85649102  0.42520959  0.99676942    -0.08500
C525        C  0.89163617  0.42614700  0.00542787    -0.03100
C526        C  0.91455334  0.44501892  0.48662840     0.03800
N527        N  0.94989608  0.44929940  0.49583519     0.66300
H528        H  0.92205465  0.47236503  0.44301000     0.15200
H529        H  0.83758145  0.41246391  0.01186650     0.14900
N530        N  0.81055467  0.42942718  0.45717982     0.74000
O531        O  0.97205821  0.42572503  0.48970101    -0.39500
O532        O  0.96349925  0.47430637  0.00400499    -0.39400
O533        O  0.80338605  0.40126301  0.44346462    -0.40100
O534        O  0.78817859  0.45906752  0.96779022    -0.40200
C535        C  0.86024216  0.32375826  0.39137555    -0.12500
C536        C  0.87724508  0.33691292  0.36481634     0.04500
C537        C  0.90130596  0.31571549  0.34841320    -0.07800
C538        C  0.90805542  0.28158512  0.35884121    -0.08500
C539        C  0.89112540  0.26804375  0.38564123    -0.03100
C540        C  0.86698607  0.28984174  0.40203962     0.03800
N541        N  0.84937482  0.27838068  0.42987034     0.66300
H542        H  0.84169394  0.34006528  0.40408954     0.15200
H543        H  0.92696077  0.26581503  0.34606191     0.14900
N544        N  0.91955811  0.32875934  0.32151181     0.74000
O545        O  0.86227526  0.28478547  0.45636470    -0.39500
O546        O  0.81813702  0.26878471  0.42827957    -0.39400
O547        O  0.95171216  0.33477526  0.32317539    -0.40100
O548        O  0.90485692  0.32945321  0.29515198    -0.40200
C549        C  0.71274307  0.43451272  0.40386583    -0.12500
C550        C  0.73373553  0.41121675  0.38656853     0.04500
C551        C  0.72143482  0.37695947  0.38141429    -0.07800
C552        C  0.68795878  0.36764085  0.39178333    -0.08500
C553        C  0.66632127  0.39170422  0.40761693    -0.03100
C554        C  0.67959958  0.42511584  0.41450837     0.03800
N555        N  0.65989284  0.44992971  0.43251638     0.66300
H556        H  0.72181469  0.46060265  0.40882805     0.15200
H557        H  0.67850666  0.34175392  0.38656306     0.14900
N558        N  0.74192328  0.35169695  0.36464163     0.74000
O559        O  0.66272737  0.45031917  0.46200950    -0.39500
O560        O  0.64515491  0.47518229  0.41884570    -0.39400
O561        O  0.76482224  0.33406281  0.37877633    -0.40100
O562        O  0.73648217  0.34627744  0.33588508    -0.40200
C563        C  0.75776543  0.43219405  0.10873481    -0.12500
C564        C  0.73855885  0.40802886  0.12647196     0.04500
C565        C  0.75166289  0.37355487  0.12928740    -0.07800
C566        C  0.78413945  0.36467113  0.11599437    -0.08500
C567        C  0.80436693  0.38969824  0.10030530    -0.03100
C568        C  0.79025189  0.42352337  0.09585883     0.03800
N569        N  0.80862839  0.44969495  0.07859912     0.66300
H570        H  0.74802749  0.45855231  0.10543993     0.15200
H571        H  0.79441971  0.33857017  0.11959674     0.14900
N572        N  0.73332360  0.34766176  0.14683409     0.74000
O573        O  0.80110523  0.45506692  0.05021674    -0.39500
O574        O  0.82560053  0.47238356  0.09328689    -0.39400
O575        O  0.71643245  0.32463713  0.13252312    -0.40100
O576        O  0.73913766  0.34404191  0.17578001    -0.40200
C577        C  0.70207099  0.50492738  0.25961155    -0.12500
C578        C  0.71368497  0.49528362  0.22942602     0.04500
C579        C  0.74975844  0.49100939  0.22428869    -0.07800
C580        C  0.77276443  0.49128429  0.24972010    -0.08500
C581        C  0.76053709  0.49630196  0.28059186    -0.03100
C582        C  0.72507363  0.50497052  0.28528199     0.03800
N583        N  0.71134998  0.50991922  0.31631407     0.66300
H584        H  0.67459829  0.50911898  0.26382327     0.15200
H585        H  0.79985478  0.48435867  0.24563519     0.14900
N586        N  0.76297376  0.48306131  0.19363984     0.74000
O587        O  0.70100911  0.53979216  0.32487084    -0.39500
O588        O  0.70564356  0.48388381  0.33373893    -0.39400
O589        O  0.77353144  0.50733592  0.17601355    -0.40100
O590        O  0.76837209  0.45174412  0.18585575    -0.40200
C591        C  0.55279543  0.28469131  0.14647114    -0.12500
C592        C  0.57758866  0.26347950  0.13104243     0.04500
C593        C  0.61174555  0.27627814  0.12678578    -0.07800
C594        C  0.62027427  0.30965734  0.13749527    -0.08500
C595        C  0.59509250  0.33128429  0.15154606    -0.03100
C596        C  0.56109935  0.31858442  0.15613268     0.03800
N597        N  0.53479473  0.33975903  0.17072281     0.66300
H598        H  0.52638525  0.27557329  0.14973466     0.15200
H599        H  0.64645702  0.31919350  0.13387118     0.14900
N600        N  0.63824229  0.25562573  0.11189191     0.74000
O601        O  0.51444742  0.35756683  0.15388763    -0.39500
O602        O  0.52770151  0.33543842  0.19945649    -0.39400
O603        O  0.64513494  0.26037848  0.08316078    -0.40100
O604        O  0.65947486  0.23884920  0.12865305    -0.40200
C605        C  0.61902280  0.41249374  0.01889858    -0.12500
C606        C  0.58499298  0.41791870  0.50802037     0.04500
C607        C  0.56162398  0.43843480  0.02567948    -0.07800
C608        C  0.57235540  0.45263831  0.05420615    -0.08500
C609        C  0.60605917  0.44634295  0.06555911    -0.03100
C610        C  0.63001739  0.42740008  0.04692522     0.03800
N611        N  0.66488479  0.42117452  0.05703867     0.66300
H612        H  0.63781850  0.39831616  0.50324315     0.15200
H613        H  0.55368908  0.46725141  0.06830348     0.14900
N614        N  0.52642105  0.44350527  0.01613326     0.74000
O615        O  0.67295701  0.39235130  0.06944966    -0.39500
O616        O  0.68842831  0.44263792  0.04997757    -0.39400
O617        O  0.50487578  0.41912009  0.01970282    -0.40100
O618        O  0.51548888  0.47394958  0.01038343    -0.40200
C619        C  0.55095226  0.39579389  0.26309765    -0.12500
C620        C  0.57852777  0.41913489  0.25887050     0.04500
C621        C  0.59240201  0.43610241  0.28496759    -0.07800
C622        C  0.58000043  0.42843884  0.31486151    -0.08500
C623        C  0.55429604  0.40305163  0.31974256    -0.03100
C624        C  0.53890765  0.38733485  0.29336078     0.03800
N625        N  0.51249963  0.36160041  0.29681613     0.66300
H626        H  0.54000401  0.38274262  0.24300772     0.15200
H627        H  0.59193458  0.44162554  0.33445047     0.14900
N628        N  0.61995993  0.46053357  0.28161469     0.74000
O629        O  0.48093162  0.37086980  0.29816953    -0.39500
O630        O  0.52024041  0.32977963  0.29334434    -0.39400
O631        O  0.61284713  0.49272885  0.28135503    -0.40100
O632        O  0.65079669  0.45053015  0.28652315    -0.40200
C633        C  0.06823912  0.06294560  0.38512992    -0.12500
C634        C  0.05805049  0.03838990  0.36238910     0.04500
C635        C  0.02390568  0.04017561  0.35089728    -0.07800
C636        C  0.00007837  0.06398349  0.36369793    -0.08500
C637        C  0.00926049  0.08680071  0.38802701    -0.03100
C638        C  0.04406486  0.08709406  0.39804729     0.03800
N639        N  0.05440582  0.10927202  0.42314622     0.66300
H640        H  0.09420081  0.06151389  0.39476351     0.15200
H641        H  0.97381389  0.06432641  0.35461751     0.14900
N642        N  0.01291123  0.01767000  0.32627614     0.74000
O643        O  0.04503230  0.10236897  0.45095205    -0.39500
O644        O  0.07650741  0.13283784  0.41816622    -0.39400
O645        O  0.98978546  0.99521408  0.33171107    -0.40100
O646        O  0.02118267  0.02483015  0.29826400    -0.40200
C647        C  0.43577354  0.03103703  0.14354548    -0.12500
C648        C  0.40217347  0.04424366  0.14897733     0.04500
C649        C  0.39468247  0.07880711  0.13943378    -0.07800
C650        C  0.42100377  0.09951261  0.12546627    -0.08500
C651        C  0.45470755  0.08591141  0.11972466    -0.03100
C652        C  0.46145255  0.05073563  0.12866044     0.03800
N653        N  0.49439333  0.03411358  0.12290861     0.66300
H654        H  0.44200994  0.00424839  0.14962147     0.15200
H655        H  0.41513606  0.12638869  0.11949393     0.14900
N656        N  0.36100690  0.09370075  0.14497962     0.74000
O657        O  0.51539576  0.02983671  0.14520687    -0.39500
O658        O  0.50016499  0.01908453  0.09699000    -0.39400
O659        O  0.35545436  0.11160179  0.16940613    -0.40100
O660        O  0.33870816  0.09356136  0.12344389    -0.40200
C661        C  0.23148849  0.99994658  0.28566420    -0.12500
C662        C  0.19715695  0.99066168  0.27839581     0.04500
C663        C  0.18781366  0.98812995  0.24640374    -0.07800
C664        C  0.21368415  0.99037347  0.22286638    -0.08500
C665        C  0.24872134  0.99566566  0.23039509    -0.03100
C666        C  0.25726678  0.00218830  0.26194969     0.03800
N667        N  0.29269627  0.00702442  0.27061790     0.66300
H668        H  0.23924047  0.00161694  0.31001715     0.15200
H669        H  0.20686827  0.98504547  0.19870137     0.14900
N670        N  0.15262016  0.98065371  0.23775388     0.74000
O671        O  0.30394814  0.03741742  0.27508253    -0.39500
O672        O  0.31154318  0.98097059  0.27724817    -0.39400
O673        O  0.12749972  0.99582965  0.25155585    -0.40100
O674        O  0.14650546  0.95919310  0.21607004    -0.40200
C675        C  0.96677768  0.56613836  0.36405107    -0.12500
C676        C  0.95949629  0.58558205  0.39136906     0.04500
C677        C  0.92493898  0.58701572  0.40261378    -0.07800
C678        C  0.89914348  0.56684116  0.38801527    -0.08500
C679        C  0.90696713  0.54560056  0.36165272    -0.03100
C680        C  0.94097558  0.54705701  0.34881349     0.03800
N681        N  0.94987804  0.52923449  0.32031465     0.66300
H682        H  0.99286914  0.56610345  0.35409991     0.15200
H683        H  0.87337027  0.56629369  0.39855536     0.14900
N684        N  0.91616684  0.60671455  0.43007306     0.74000
O685        O  0.93843114  0.54055343  0.29452318    -0.39500
O686        O  0.97318871  0.50584298  0.32032031    -0.39400
O687        O  0.89878624  0.63464468  0.42760123    -0.40100
O688        O  0.92165262  0.59391059  0.45690914    -0.40200
C689        C  0.09389898  0.79867528  0.34603737    -0.12500
C690        C  0.10396040  0.82410104  0.36763934     0.04500
C691        C  0.10535724  0.81568154  0.39970917    -0.07800
C692        C  0.09631120  0.78223712  0.40986868    -0.08500
C693        C  0.08500703  0.75681786  0.38855068    -0.03100
C694        C  0.08432171  0.76520768  0.35616183     0.03800
N695        N  0.07380081  0.74030397  0.33326451     0.66300
H696        H  0.09257120  0.80514299  0.32127506     0.15200
H697        H  0.09677077  0.77669901  0.43483581     0.14900
N698        N  0.11378819  0.84148246  0.42247283     0.74000
O699        O  0.04205313  0.73804132  0.32634274    -0.39500
O700        O  0.09643391  0.72610935  0.31568216    -0.39400
O701        O  0.08972533  0.86001643  0.43423132    -0.40100
O702        O  0.14288793  0.84007172  0.43584347    -0.40200
C703        C  0.96494060  0.94787268  0.14348484    -0.12500
C704        C  0.95297633  0.92244761  0.12262668     0.04500
C705        C  0.91719358  0.92092166  0.11642176    -0.07800
C706        C  0.89420891  0.94523066  0.13062182    -0.08500
C707        C  0.90627423  0.97157180  0.15099904    -0.03100
C708        C  0.94220733  0.97199660  0.15778874     0.03800
N709        N  0.95635372  0.99698456  0.17884539     0.66300
H710        H  0.99237194  0.94896402  0.14894457     0.15200
H711        H  0.86700182  0.94454424  0.12427041     0.14900
N712        N  0.90425077  0.89671027  0.09396664     0.74000
O713        O  0.95714378  0.99017053  0.20782516    -0.39500
O714        O  0.97413485  0.02190611  0.16810114    -0.39400
O715        O  0.88199574  0.87440392  0.10221607    -0.40100
O716        O  0.91115753  0.90093637  0.06516488    -0.40200
C717        C  0.19855649  0.93808633  0.13013386    -0.12500
C718        C  0.22580960  0.91361240  0.13262280     0.04500
C719        C  0.21887582  0.87811604  0.12636190    -0.07800
C720        C  0.18525781  0.86795591  0.11787783    -0.08500
C721        C  0.15795731  0.89242362  0.11620514    -0.03100
C722        C  0.16492290  0.92786498  0.12239732     0.03800
N723        N  0.13823059  0.95400452  0.12055012     0.66300
H724        H  0.20303258  0.96539509  0.13510681     0.15200
H725        H  0.18034618  0.84067769  0.11314541     0.14900
N726        N  0.24553843  0.85203101  0.12857822     0.74000
O727        O  0.12170801  0.96290013  0.14507853    -0.39500
O728        O  0.13553397  0.97228655  0.09601610    -0.39400
O729        O  0.24608627  0.83173786  0.15193731    -0.40100
O730        O  0.26525697  0.84601763  0.10528579    -0.40200
C731        C  0.99701393  0.73798046  0.04346031    -0.12500
C732        C  0.99636833  0.77360430  0.03598709     0.04500
C733        C  0.99337647  0.78365918  0.00428232    -0.07800
C734        C  0.00203147  0.76201445  0.47817507    -0.08500
C735        C  0.00085579  0.72658368  0.48665513    -0.03100
C736        C  0.99435536  0.71788022  0.51842047     0.03800
N737        N  0.99271113  0.68222570  0.52814367     0.66300
H738        H  0.99985019  0.72991686  0.06773407     0.15200
H739        H  0.00749402  0.76918215  0.45398861     0.14900
N740        N  0.99203056  0.81984063  0.99608073     0.74000
O741        O  0.03173997  0.66548636  0.03802029    -0.39500
O742        O  0.96343281  0.66807426  0.53182611    -0.39400
O743        O  0.01641498  0.83323064  0.98021150    -0.40100
O744        O  0.96776028  0.83901035  0.00668476    -0.40200
C745        C  0.07312839  0.86490340  0.25045435    -0.12500
C746        C  0.06584979  0.89870988  0.26178106     0.04500
C747        C  0.04435545  0.92098417  0.24406263    -0.07800
C748        C  0.03337052  0.91050465  0.21432122    -0.08500
C749        C  0.04269616  0.87761776  0.20214409    -0.03100
C750        C  0.06159784  0.85414297  0.22101131     0.03800
N751        N  0.07183374  0.82046933  0.20961388     0.66300
H752        H  0.08901541  0.84705900  0.26406699     0.15200
H753        H  0.01828940  0.92862194  0.20028894     0.14900
N754        N  0.03471610  0.95482126  0.25520514     0.74000
O755        O  0.09886575  0.81719805  0.19274104    -0.39500
O756        O  0.05648536  0.79362783  0.21961685    -0.39400
O757        O  0.04996262  0.98129190  0.24430463    -0.40100
O758        O  0.00639130  0.95861497  0.27010601    -0.40200
C759        C  0.11908735  0.93170977  0.46988024    -0.12500
C760        C  0.09106219  0.93913218  0.45012881     0.04500
C761        C  0.05672723  0.93426982  0.46135671    -0.07800
C762        C  0.05102219  0.92088753  0.49154700    -0.08500
C763        C  0.07719799  0.90885467  0.00978339    -0.03100
C764        C  0.11142184  0.91766370  0.00088822     0.03800
N765        N  0.13996068  0.91060982  0.02128736     0.66300
H766        H  0.14544513  0.93453932  0.46120575     0.15200
H767        H  0.02346293  0.90825314  0.99596227     0.14900
N768        N  0.02750061  0.94167730  0.44189617     0.74000
O769        O  0.15287560  0.88025631  0.02246171    -0.39500
O770        O  0.15558468  0.93552332  0.03415925    -0.39400
O771        O  0.01079435  0.91695097  0.42985100    -0.40100
O772        O  0.01562242  0.97241104  0.44026803    -0.40200
C773        C  0.07623748  0.44084421  0.12739254    -0.12500
C774        C  0.06806701  0.46296586  0.15307625     0.04500
C775        C  0.03385345  0.46237072  0.16543401    -0.07800
C776        C  0.00827100  0.44290727  0.15043361    -0.08500
C777        C  0.01592204  0.42266966  0.12367418    -0.03100
C778        C  0.05055208  0.42064102  0.11282860     0.03800
N779        N  0.05948489  0.40049724  0.08566360     0.66300
H780        H  0.10219267  0.44082738  0.11720645     0.15200
H781        H  0.98202360  0.44340374  0.16005699     0.14900
N782        N  0.02445180  0.48164321  0.19302737     0.74000
O783        O  0.05394210  0.41277646  0.05863845    -0.39500
O784        O  0.07707469  0.37275183  0.08854659    -0.39400
O785        O  0.00139309  0.50522676  0.19164575    -0.40100
O786        O  0.03533195  0.47163696  0.21944554    -0.40200
C787        C  0.11355087  0.60958775  0.28272126    -0.12500
C788        C  0.08970806  0.59632148  0.26105511     0.04500
C789        C  0.05412066  0.59479321  0.26996014    -0.07800
C790        C  0.04348205  0.60603515  0.30007790    -0.08500
C791        C  0.06793649  0.61790482  0.32175272    -0.03100
C792        C  0.10315157  0.61978065  0.31272418     0.03800
N793        N  0.12894177  0.63176555  0.33398891     0.66300
H794        H  0.14087078  0.61197227  0.27660456     0.15200
H795        H  0.01639165  0.60379939  0.30706393     0.14900
N796        N  0.02875764  0.58058588  0.24942829     0.74000
O797        O  0.15059456  0.61025389  0.34510018    -0.39500
O798        O  0.13478859  0.66399859  0.33599662    -0.39400
O799        O  0.02417985  0.54804187  0.24892336    -0.40100
O800        O  0.00679754  0.60053282  0.23661375    -0.40200
C801        C  0.13256918  0.57493467  0.05045587    -0.12500
C802        C  0.10805178  0.55590566  0.06767450     0.04500
C803        C  0.07473804  0.55044271  0.05485445    -0.07800
C804        C  0.06121320  0.56327037  0.52726888    -0.08500
C805        C  0.08553485  0.58230744  0.50971693    -0.03100
C806        C  0.12371266  0.59065637  0.02203298     0.03800
N807        N  0.14959833  0.61063124  0.00588448     0.66300
H808        H  0.15819105  0.57946840  0.05998705     0.15200
H809        H  0.03453482  0.56163801  0.51944443     0.14900
N810        N  0.04972642  0.52930537  0.07085625     0.74000
O811        O  0.15469072  0.64184700  0.01389825    -0.39500
O812        O  0.17184740  0.59520935  0.98875380    -0.39400
O813        O  0.02214932  0.54292926  0.08177423    -0.40100
O814        O  0.05319009  0.49654437  0.07066902    -0.40200
C815        C  0.12557505  0.69539903  0.13796897    -0.12500
C816        C  0.10031872  0.67210683  0.14909072     0.04500
C817        C  0.06555045  0.68359912  0.15198448    -0.07800
C818        C  0.05635963  0.71756891  0.14292718    -0.08500
C819        C  0.08140071  0.74106117  0.13134208    -0.03100
C820        C  0.11651212  0.72955456  0.12904008     0.03800
N821        N  0.14327181  0.75188480  0.11731204     0.66300
H822        H  0.15247635  0.68689073  0.13583285     0.15200
H823        H  0.02935558  0.72560339  0.14526433     0.14900
N824        N  0.03960397  0.66155842  0.16560917     0.74000
O825        O  0.15855476  0.77221080  0.13581987    -0.39500
O826        O  0.15513056  0.74753324  0.08982375    -0.39400
O827        O  0.04190557  0.65220942  0.19395709    -0.40100
O828        O  0.01447500  0.65124306  0.14931609    -0.40200
C829        C  0.42804683  0.48698217  0.39835674    -0.12500
C830        C  0.40813771  0.47786745  0.37209838     0.04500
C831        C  0.40786386  0.44280842  0.36231361    -0.07800
C832        C  0.42948459  0.41805521  0.37740309    -0.08500
C833        C  0.45101428  0.42794769  0.40250183    -0.04700
C834        C  0.44871657  0.46234581  0.41376433     0.03800
N835        N  0.46792275  0.47301212  0.44062958     0.66300
H836        H  0.42780242  0.51297113  0.40669282     0.15200
H837        H  0.43155548  0.39212046  0.36791560     0.14900
N838        N  0.38869129  0.43267346  0.33532023     0.74000
O839        O  0.49236967  0.49453655  0.43749054    -0.39500
O840        O  0.45622806  0.46617152  0.46772832    -0.39400
O841        O  0.40165874  0.43709490  0.30826448    -0.40100
O842        O  0.36161857  0.41460466  0.33861047    -0.40200
C843        C  0.22595427  0.63496856  0.38924968    -0.12500
C844        C  0.23551087  0.59951069  0.38831209     0.04500
C845        C  0.21358959  0.57471742  0.40245887    -0.07800
C846        C  0.18164977  0.58524239  0.41520845    -0.08500
C847        C  0.17104513  0.62047337  0.41494138    -0.03100
C848        C  0.19436292  0.64573482  0.40317258     0.03800
N849        N  0.18625043  0.68216547  0.40474418     0.66300
H850        H  0.24318123  0.65438159  0.37925433     0.15200
H851        H  0.16449976  0.56529147  0.42438102     0.14900
N852        N  0.22216545  0.53835833  0.40198025     0.74000
O853        O  0.19103669  0.69853116  0.43001444    -0.39500
O854        O  0.17956050  0.69891236  0.37997328    -0.39400
O855        O  0.23325710  0.52375903  0.42654503    -0.40100
O856        O  0.21352706  0.51995542  0.37882856    -0.40200
C857        C  0.23038832  0.51594428  0.28796783    -0.12500
C858        C  0.26573943  0.51936254  0.28018425     0.04500
C859        C  0.27653033  0.51404044  0.24880859    -0.07800
C860        C  0.25164913  0.50891702  0.22538674    -0.08500
C861        C  0.21591645  0.50993072  0.23260343    -0.03100
C862        C  0.20542280  0.51160477  0.26444319     0.03800
N863        N  0.16934090  0.51376725  0.27276906     0.66300
H864        H  0.22171447  0.52039625  0.31195062     0.15200
H865        H  0.26011276  0.50855900  0.20103479     0.14900
N866        N  0.31237706  0.51702642  0.24000951     0.74000
O867        O  0.15117389  0.48651773  0.27288672    -0.39500
O868        O  0.15719919  0.54137449  0.28488622    -0.39400
O869        O  0.33082496  0.48984608  0.23681619    -0.40100
O870        O  0.32407800  0.54601480  0.23086299    -0.40200
C871        C  0.50920439  0.55415672  0.11984144    -0.12500
C872        C  0.52025346  0.58854363  0.11511436     0.04500
C873        C  0.55334596  0.59815781  0.12613533    -0.07800
C874        C  0.57475888  0.57327655  0.14105218    -0.08500
C875        C  0.56315552  0.53907342  0.14655150    -0.03100
C876        C  0.52970233  0.52978644  0.13589011     0.03800
N877        N  0.51620320  0.49544284  0.14045237     0.66300
H878        H  0.48345840  0.54645463  0.11251514     0.15200
H879        H  0.60067073  0.58063722  0.14815967     0.14900
N880        N  0.56592468  0.63276971  0.12157096     0.74000
O881        O  0.50516540  0.48652556  0.16728680    -0.39500
O882        O  0.50850986  0.47720423  0.11690738    -0.39400
O883        O  0.56741403  0.65341398  0.14457063    -0.40100
O884        O  0.57998181  0.64102012  0.09572324    -0.40200
C885        C  0.39502996  0.56264919  0.46181662    -0.12500
C886        C  0.37108695  0.58130606  0.44351294     0.04500
C887        C  0.35641652  0.61261362  0.45461220    -0.07800
C888        C  0.36635336  0.62568077  0.48359227    -0.08500
C889        C  0.39513857  0.61018496  0.00180956    -0.03100
C890        C  0.40516123  0.57590541  0.49098777     0.03800
N891        N  0.42330388  0.55280459  0.01175836     0.66300
H892        H  0.40664631  0.53957739  0.45322277     0.15200
H893        H  0.37021344  0.65858682  0.98767250     0.14900
N894        N  0.33170021  0.63175817  0.43637640     0.74000
O895        O  0.40967977  0.52570415  0.02316355    -0.39500
O896        O  0.45572897  0.55708184  0.01381689    -0.39400
O897        O  0.29988895  0.62405998  0.43817706    -0.40100
O898        O  0.34060001  0.65989351  0.42330736    -0.40200
C899        C  0.41419629  0.65018908  0.21670278    -0.12500
C900        C  0.42679399  0.62455952  0.19602282     0.04500
C901        C  0.42818330  0.58934553  0.20630963    -0.07800
C902        C  0.41472863  0.58022670  0.23585444    -0.08500
C903        C  0.39985456  0.60565068  0.25535801    -0.03100
C904        C  0.40081442  0.64104481  0.24614766     0.03800
N905        N  0.38844317  0.66807623  0.26662207     0.66300
H906        H  0.41331587  0.67733081  0.20955751     0.15200
H907        H  0.41475593  0.55309031  0.24305338     0.14900
N908        N  0.44321772  0.56252552  0.18711490     0.74000
O909        O  0.40942534  0.68268163  0.28488899    -0.39500
O910        O  0.35888655  0.68170077  0.26219984    -0.39400
O911        O  0.47508971  0.55514800  0.18986912    -0.40100
O912        O  0.42372697  0.54205272  0.17236467    -0.40200
C913        C  0.30706060  0.57831128  0.11183251    -0.12500
C914        C  0.31339323  0.61439934  0.11107844     0.04500
C915        C  0.28558311  0.63747961  0.11776918    -0.07800
C916        C  0.25290838  0.62458815  0.12603604    -0.08500
C917        C  0.24664934  0.58868713  0.12781609    -0.03100
C918        C  0.27398546  0.56531328  0.11967194     0.03800
N919        N  0.26881440  0.52844316  0.11937089     0.66300
H920        H  0.32784398  0.56003785  0.10608086     0.15200
H921        H  0.23252266  0.64318351  0.13212574     0.14900
N922        N  0.29064551  0.67413167  0.11959340     0.74000
O923        O  0.28286951  0.50953885  0.14002911    -0.39500
O924        O  0.25541422  0.51437235  0.09565589    -0.39400
O925        O  0.28748992  0.69234127  0.09505647    -0.40100
O926        O  0.28726372  0.68852056  0.14607163    -0.40200
C927        C  0.35058515  0.81256186  0.14946195    -0.12500
C928        C  0.37532821  0.83912207  0.14769430     0.04500
C929        C  0.40937624  0.83068406  0.13731508    -0.07800
C930        C  0.41800940  0.79609245  0.12958995    -0.08500
C931        C  0.39314652  0.76940059  0.13146179    -0.03100
C932        C  0.35908442  0.77817950  0.14142670     0.03800
N933        N  0.33293205  0.75242898  0.14495613     0.66300
H934        H  0.32426778  0.81838748  0.15738969     0.15200
H935        H  0.44425548  0.79026491  0.12149981     0.14900
N936        N  0.43568435  0.85668327  0.13503104     0.74000
O937        O  0.33186817  0.73510637  0.17016632    -0.39500
O938        O  0.30593082  0.75495313  0.12846277    -0.39400
O939        O  0.45729008  0.86002438  0.15691056    -0.40100
O940        O  0.44035838  0.87273857  0.10945504    -0.40200
C941        C  0.53561380  0.92498649  0.37032974    -0.12500
C942        C  0.51499286  0.93338116  0.39712978     0.04500
C943        C  0.51933579  0.96650611  0.41095514    -0.07800
C944        C  0.54229659  0.99056882  0.39734664    -0.08500
C945        C  0.56163514  0.98264722  0.36999169    -0.03100
C946        C  0.55863841  0.94932299  0.35672935     0.03800
N947        N  0.57642146  0.94096275  0.32804120     0.66300
H948        H  0.53245373  0.90010760  0.35870850     0.15200
H949        H  0.54479531  0.01600715  0.40817563     0.14900
N950        N  0.50012296  0.97655258  0.43845714     0.74000
O951        O  0.60452102  0.92372048  0.32860531    -0.39500
O952        O  0.56584967  0.95362401  0.30243811    -0.39400
O953        O  0.51268141  0.97067381  0.46523247    -0.40100
O954        O  0.47369601  0.99609952  0.43596468    -0.40200
C955        C  0.41242881  0.73184692  0.37393643    -0.12500
C956        C  0.38611181  0.75680951  0.37916689     0.04500
C957        C  0.35129619  0.74767067  0.37300258    -0.07800
C958        C  0.34359175  0.71398259  0.36217759    -0.08500
C959        C  0.37000331  0.68874681  0.35774684    -0.03100
C960        C  0.40487185  0.69820066  0.36387027     0.03800
N961        N  0.43303000  0.67362254  0.36158848     0.66300
H962        H  0.43930598  0.73791838  0.37892569     0.15200
H963        H  0.31673312  0.70746371  0.35763848     0.14900
N964        N  0.32350042  0.77221927  0.37742105     0.74000
O965        O  0.45522194  0.67644176  0.33969028    -0.39500
O966        O  0.43944445  0.65381707  0.38455543    -0.39400
O967        O  0.31263484  0.78975047  0.35435579    -0.40100
O968        O  0.30636093  0.77232429  0.40286937    -0.40200
C969        C  0.46930442  0.74962674  0.47105210    -0.12500
C970        C  0.47035127  0.78537317  0.47794199     0.04500
C971        C  0.47523118  0.79740313  0.01402331    -0.07800
C972        C  0.47552171  0.77275718  0.03851038    -0.08500
C973        C  0.47425330  0.73687021  0.03213939    -0.03100
C974        C  0.47612958  0.72570138  0.00062360     0.03800
N975        N  0.46454696  0.68879367  0.48741730     0.66300
H976        H  0.46396915  0.74127443  0.44726545     0.15200
H977        H  0.47323579  0.78178024  0.06257740     0.14900
N978        N  0.47270425  0.83366875  0.02152189     0.74000
O979        O  0.43485271  0.67943430  0.47849150    -0.39500
O980        O  0.50180134  0.67152235  0.99100816    -0.39400
O981        O  0.44490573  0.84592857  0.03326124    -0.40100
O982        O  0.49967521  0.85218933  0.02071019    -0.40200
C983        C  0.26452103  0.91974466  0.35970509    -0.12500
C984        C  0.23694450  0.91847995  0.38150830     0.04500
C985        C  0.24395187  0.90967389  0.41295585    -0.07800
C986        C  0.27802966  0.90121365  0.42177500    -0.08500
C987        C  0.30565158  0.90293173  0.40004012    -0.03100
C988        C  0.29870170  0.91267304  0.36879663     0.03800
N989        N  0.32568733  0.91324342  0.34551508     0.66300
H990        H  0.25954832  0.92658394  0.33542925     0.15200
H991        H  0.28296157  0.89364408  0.44576942     0.14900
N992        N  0.21679370  0.90843387  0.43603798     0.74000
O993        O  0.32698254  0.88943210  0.32512040    -0.39500
O994        O  0.34288061  0.94076439  0.34121921    -0.39400
O995        O  0.20460934  0.87928293  0.44410028    -0.40100
O996        O  0.21159197  0.93457375  0.45349125    -0.40200
C997        C  0.39809834  0.87152721  0.29869347    -0.12500
C998        C  0.41615497  0.89636429  0.31619824     0.04500
C999        C  0.42075904  0.93023335  0.30359373    -0.07800
C1000       C  0.40634337  0.93891798  0.27449692    -0.08500
C1001       C  0.38661598  0.91462188  0.25811834    -0.03100
C1002       C  0.38281791  0.88059686  0.27012745     0.03800
N1003       N  0.36293278  0.85518449  0.25375751     0.66300
H1004       H  0.39392772  0.84558913  0.30810322     0.15200
H1005       H  0.40972300  0.96497757  0.26509845     0.14900
N1006       N  0.43969460  0.95617142  0.32019005     0.74000
O1007       O  0.37782179  0.83473730  0.23458204    -0.39500
O1008       O  0.33139582  0.85056866  0.26106716    -0.39400
O1009       O  0.47231543  0.95775255  0.31693680    -0.40100
O1010       O  0.42350479  0.98045375  0.33420630    -0.40200
C1011       C  0.39653653  0.94992962  0.01946468    -0.12500
C1012       C  0.38539713  0.91630840  0.01139547     0.04500
C1013       C  0.36299580  0.89830665  0.03242986    -0.07800
C1014       C  0.35190920  0.91420078  0.06032542    -0.08500
C1015       C  0.36344635  0.94738899  0.06849043    -0.03100
C1016       C  0.38650886  0.96511280  0.04822875     0.03800
N1017       N  0.40039084  0.99815271  0.05683103     0.66300
H1018       H  0.41391754  0.96400451  0.00386140     0.15200
H1019       H  0.33508247  0.89992939  0.07632598     0.14900
N1020       N  0.33132393  0.87943901  0.51404436     0.74000
O1021       O  0.42681257  0.99928379  0.07411712    -0.39500
O1022       O  0.39036361  0.02540596  0.04282224    -0.39400
O1023       O  0.33649991  0.84792281  0.52138299    -0.40100
O1024       O  0.30254529  0.88831324  0.50237580    -0.40200
O1025       O  0.39652404  0.86804027  0.97825297    -0.82000
C1026       C  0.42993604  0.88586581  0.85079814     0.97400
O1027       O  0.42813538  0.91053576  0.87050995    -0.71100
O1028       O  0.36932382  0.90900083  0.90100124    -0.74700
Al1029     Al  0.41619329  0.91095158  0.91435600     1.49000
C1030       C  0.34427172  0.89193373  0.91215545     0.92600
O1031       O  0.37778809  0.81051497  0.90874360    -0.80900
O1032       O  0.47436750  0.82605551  0.93860398    -0.74500
Al1033     Al  0.38961407  0.84097721  0.94226411     1.90100
O1034       O  0.43114620  0.79863110  0.89480259    -0.73600
O1035       O  0.48714473  0.87902340  0.89745997    -0.73400
O1036       O  0.43676194  0.85490238  0.85944349    -0.79100
O1037       O  0.46334927  0.91996682  0.92596598    -0.77300
O1038       O  0.42013600  0.86483155  0.91902837    -1.13400
O1039       O  0.40217242  0.91999680  0.95726986    -0.72600
C1040       C  0.39587046  0.90071858  0.98080187     0.98100
C1041       C  0.39937510  0.79089836  0.89493422     0.94500
Al1042     Al  0.45458471  0.84170459  0.89943497     1.55600
O1043       O  0.34928535  0.86744873  0.93129827    -0.77200
C1044       C  0.48869300  0.90893073  0.90948416     0.98700
C1045       C  0.45685225  0.80892337  0.95880803     0.93600
O1046       O  0.42387831  0.80953023  0.95879521    -0.82500
O1047       O  0.39524045  0.65487775  0.53671630    -0.82000
C1048       C  0.43688078  0.63491020  0.66035281     0.97400
O1049       O  0.43324603  0.61099728  0.64020238    -0.71100
O1050       O  0.37429082  0.60990800  0.61023135    -0.74700
Al1051     Al  0.42162050  0.61092856  0.59686924     1.49000
C1052       C  0.34832753  0.62824865  0.60274884     0.92600
O1053       O  0.38255243  0.71296798  0.60709116    -0.80900
O1054       O  0.47686328  0.69601549  0.57110444    -0.74500
Al1055     Al  0.39171178  0.68189708  0.57315086     1.90100
O1056       O  0.43650870  0.72408811  0.61741369    -0.73600
O1057       O  0.49281101  0.64283622  0.61187831    -0.73400
O1058       O  0.44362437  0.66610588  0.65215724    -0.79100
O1059       O  0.46844746  0.60304128  0.58379197    -0.77300
O1060       O  0.42399156  0.65739368  0.59357785    -1.13400
O1061       O  0.40904781  0.60301477  0.55466215    -0.72600
C1062       C  0.39958389  0.62266324  0.53259588     0.98100
C1063       C  0.40497553  0.73303958  0.61814812     0.94500
Al1064     Al  0.45938758  0.68016705  0.61136526     1.55600
O1065       O  0.35252063  0.65616601  0.58768726    -0.77200
C1066       C  0.49380551  0.61302899  0.59974307     0.98700
C1067       C  0.45795265  0.71281850  0.55176503     0.93600
O1068       O  0.42499786  0.71222058  0.55371799    -0.82500
O1069       O  0.30408000  0.56868503  0.79333378    -0.82000
C1070       C  0.37027764  0.57647615  0.90919947     0.97400
O1071       O  0.35071599  0.55117024  0.90206873    -0.71100
O1072       O  0.28975054  0.56919891  0.88139403    -0.74700
Al1073     Al  0.32557529  0.54155390  0.86365141     1.49000
C1074       C  0.27082399  0.59229108  0.86934986     0.92600
O1075       O  0.33321261  0.64586285  0.84180398    -0.80900
O1076       O  0.39884359  0.57706840  0.80194986    -0.74500
Al1077     Al  0.32005180  0.60546836  0.81852312     1.90100
O1078       O  0.38861215  0.63415381  0.83890207    -0.73600
O1079       O  0.40470132  0.53899645  0.85535289    -0.73400
O1080       O  0.38533203  0.59468024  0.88851691    -0.79100
O1081       O  0.35886859  0.50673313  0.85058125    -0.77300
O1082       O  0.34513252  0.57684263  0.84246193    -1.13400
O1083       O  0.29641333  0.52729993  0.82880063    -0.72600
C1084       C  0.29174984  0.53956068  0.80136144     0.98100
C1085       C  0.36433980  0.65552047  0.84448674     0.94500
Al1086     Al  0.39051338  0.58506185  0.84569659     1.55600
O1087       O  0.27880418  0.60559420  0.84334231    -0.77200
C1088       C  0.39060200  0.50961050  0.85703664     0.98700
C1089       C  0.38505764  0.59765834  0.78219618     0.93600
O1090       O  0.35596370  0.61214830  0.78787016    -0.82500
O1091       O  0.19207866  0.55962446  0.70520642    -0.82000
C1092       C  0.11392449  0.54474929  0.60034979     0.97400
O1093       O  0.14517237  0.53821885  0.60826709    -0.71100
O1094       O  0.20372403  0.54636809  0.64141512    -0.74700
Al1095     Al  0.15991682  0.52362272  0.64901660     1.49000
C1096       C  0.21146626  0.57813661  0.63985684     0.92600
O1097       O  0.13483859  0.63120766  0.67187283    -0.80900
O1098       O  0.08220759  0.57793124  0.70640859    -0.74500
Al1099     Al  0.16091255  0.59223525  0.68615225     1.90100
O1100       O  0.08964362  0.60940996  0.64875874    -0.73600
O1101       O  0.08265001  0.51603555  0.67818243    -0.73400
O1102       O  0.08998898  0.54874602  0.62075862    -0.79100
O1103       O  0.12291197  0.49071493  0.65008989    -0.77300
O1104       O  0.13673252  0.55961965  0.66665279    -1.13400
O1105       O  0.17663577  0.50711243  0.68930609    -0.72600
C1106       C  0.19357681  0.52672406  0.70771804     0.98100
C1107       C  0.10773512  0.63535571  0.65599407     0.94500
Al1108     Al  0.09026130  0.56262080  0.66390459     1.55600
O1109       O  0.19081505  0.60041888  0.65133215    -0.77200
C1110       C  0.09312010  0.49002787  0.66252952     0.98700
C1111       C  0.10235609  0.58709836  0.72808290     0.93600
O1112       O  0.13456071  0.58942525  0.72302719    -0.82500
O1113       O  0.07710104  0.86163006  0.54218752    -0.82000
C1114       C  0.03761346  0.87200154  0.66856151     0.97400
O1115       O  0.03962995  0.89746921  0.64967298    -0.71100
O1116       O  0.09792551  0.89996050  0.61864524    -0.74700
Al1117     Al  0.05113868  0.90047129  0.60604763     1.49000
C1118       C  0.12383013  0.88221782  0.60977954     0.92600
O1119       O  0.09046098  0.79769261  0.60852271    -0.80900
O1120       O  0.99525809  0.81713998  0.57829026    -0.74500
Al1121     Al  0.08068325  0.83163078  0.57707991     1.90100
O1122       O  0.03702551  0.78575363  0.62094618    -0.73600
O1123       O  0.98053323  0.86812965  0.62222985    -0.73400
O1124       O  0.03121340  0.84133006  0.65902939    -0.79100
O1125       O  0.00447552  0.90899361  0.59437335    -0.77300
O1126       O  0.04880107  0.85437293  0.60015482    -1.13400
O1127       O  0.06365109  0.91184282  0.56402200    -0.72600
C1128       C  0.07266906  0.89407167  0.54044928     0.98100
C1129       C  0.06858032  0.77678582  0.61961332     0.94500
Al1130     Al  0.01398125  0.83031623  0.61831695     1.55600
O1131       O  0.12006354  0.85589998  0.59249671    -0.77200
C1132       C  0.97966224  0.89862493  0.61124975     0.98700
C1133       C  0.01357450  0.80187025  0.55721797     0.93600
O1134       O  0.04658846  0.80329673  0.55708961    -0.82500
O1135       O  0.09251258  0.63581378  0.97669246    -0.82000
C1136       C  0.05906404  0.62386070  0.85420321     0.97400
O1137       O  0.07700377  0.60868842  0.87481791    -0.71100
O1138       O  0.11657081  0.60600194  0.92380887    -0.74700
Al1139     Al  0.06739401  0.60282766  0.91748717     1.49000
C1140       C  0.13704959  0.63141205  0.92074264     0.92600
O1141       O  0.08280406  0.71553491  0.92526325    -0.80900
O1142       O  0.00753278  0.69737345  0.93621151    -0.74500
Al1143     Al  0.08429453  0.67273553  0.94766834     1.90100
O1144       O  0.05176400  0.70449163  0.88415046    -0.73600
O1145       O  0.98836241  0.63473916  0.91222480    -0.73400
O1146       O  0.03378168  0.64388916  0.86163671    -0.79100
O1147       O  0.02146314  0.58848975  0.90795307    -0.77300
O1148       O  0.05778529  0.64806454  0.92200781    -1.13400
O1149       O  0.05948193  0.59284989  0.96112846    -0.72600
C1150       C  0.07929208  0.60620705  0.98139448     0.98100
C1151       C  0.07258073  0.72387054  0.89832951     0.94500
Al1152     Al  0.02319643  0.66842431  0.90062639     1.55600
O1153       O  0.12575043  0.66213235  0.92445184    -0.77200
C1154       C  0.99183328  0.60261939  0.90622836     0.98700
C1155       C  0.01802586  0.69989160  0.96442825     0.93600
O1156       O  0.04609415  0.68564092  0.97288429    -0.82500
O1157       O  0.28356547  0.94694734  0.71144193    -0.82000
C1158       C  0.35720091  0.95674859  0.60184803     0.97400
O1159       O  0.32591401  0.96228410  0.61063081    -0.71100
O1160       O  0.26924124  0.95565888  0.64679272    -0.74700
Al1161     Al  0.31195157  0.98013820  0.65091882     1.49000
C1162       C  0.26176904  0.92382744  0.64785139     0.92600
O1163       O  0.34136822  0.87568370  0.67711190    -0.80900
O1164       O  0.39314485  0.93155049  0.70694931    -0.74500
Al1165     Al  0.31453459  0.91382642  0.69215067     1.90100
O1166       O  0.38478843  0.89863904  0.65091232    -0.73600
O1167       O  0.38757911  0.99214142  0.67849546    -0.73400
O1168       O  0.38187673  0.95785623  0.62128142    -0.79100
O1169       O  0.34826230  0.01486072  0.64838077    -0.77300
O1170       O  0.33662018  0.94625052  0.66977584    -1.13400
O1171       O  0.29545515  0.99875951  0.69070655    -0.72600
C1172       C  0.28027103  0.97991786  0.71137361     0.98100
C1173       C  0.36764597  0.87241471  0.65939558     0.94500
Al1174     Al  0.38285956  0.94532359  0.66500462     1.55600
O1175       O  0.28282564  0.90265829  0.65986007    -0.77200
C1176       C  0.37758521  0.01683333  0.66117950     0.98700
C1177       C  0.37498241  0.92164998  0.73000957     0.93600
O1178       O  0.34261837  0.91822408  0.72781814    -0.82500
O1179       O  0.16511472  0.94869563  0.79743944    -0.82000
C1180       C  0.09945859  0.94251278  0.91619619     0.97400
O1181       O  0.12285954  0.96416931  0.90868175    -0.71100
O1182       O  0.18363573  0.94392405  0.88723174    -0.74700
Al1183     Al  0.14807527  0.97300803  0.87011696     1.49000
C1184       C  0.20463982  0.92540043  0.87167738     0.92600
O1185       O  0.14281696  0.87092138  0.84895123    -0.80900
O1186       O  0.07436277  0.93470028  0.80789208    -0.74500
Al1187     Al  0.15308176  0.91097957  0.82387821     1.90100
O1188       O  0.08622247  0.88058082  0.84975780    -0.73600
O1189       O  0.06807627  0.97790028  0.85652330    -0.73400
O1190       O  0.08372970  0.92526486  0.89570821    -0.79100
O1191       O  0.11569575  0.00863443  0.85818209    -0.77300
O1192       O  0.12763051  0.93866894  0.84879352    -1.13400
O1193       O  0.17773038  0.98691598  0.83447001    -0.72600
C1194       C  0.18024175  0.97619207  0.80615626     0.98100
C1195       C  0.11205540  0.86030966  0.85350317     0.94500
Al1196     Al  0.08203195  0.93061205  0.85209256     1.55600
O1197       O  0.19605342  0.91452663  0.84510167    -0.77200
C1198       C  0.08295015  0.00694050  0.85838062     0.98700
C1199       C  0.08816496  0.91320440  0.78898970     0.93600
O1200       O  0.11727153  0.89965529  0.79516893    -0.82500
O1201       O  0.62756021  0.42617452  0.72675217    -0.82000
C1202       C  0.61560802  0.45361994  0.59809297     0.97400
O1203       O  0.59066473  0.45160101  0.61751419    -0.71100
O1204       O  0.58957084  0.39402390  0.64941096    -0.74700
Al1205     Al  0.58824821  0.44158981  0.66103565     1.49000
C1206       C  0.60512947  0.36907179  0.66246454     0.92600
O1207       O  0.68779129  0.40003892  0.65924906    -0.80900
O1208       O  0.67392335  0.49882694  0.68617977    -0.74500
Al1209     Al  0.65626932  0.41490799  0.69168563     1.90100
O1210       O  0.70077880  0.45241728  0.64307037    -0.73600
O1211       O  0.62106822  0.51239558  0.64409533    -0.73400
O1212       O  0.64615393  0.46039340  0.60696116    -0.79100
O1213       O  0.57936564  0.48883696  0.67146624    -0.77300
O1214       O  0.63412110  0.44489372  0.66673976    -1.13400
O1215       O  0.57698224  0.43033955  0.70328134    -0.72600
C1216       C  0.59478177  0.42767961  0.72781250     0.98100
C1217       C  0.70766680  0.42018126  0.64417961     0.94500
Al1218     Al  0.65836214  0.47833671  0.64707214     1.55600
O1219       O  0.62924929  0.37465226  0.68160245    -0.77200
C1220       C  0.59015411  0.51331748  0.65438490     0.98700
C1221       C  0.69066678  0.48119588  0.70650293     0.93600
O1222       O  0.68837793  0.44831984  0.70746765    -0.82500
O1223       O  0.84395567  0.42586417  0.78741262    -0.82000
C1224       C  0.86173927  0.45798719  0.91352237     0.97400
O1225       O  0.88608566  0.45428070  0.89353891    -0.71100
O1226       O  0.88336664  0.39408901  0.86529631    -0.74700
Al1227     Al  0.88642257  0.44063324  0.85037155     1.49000
C1228       C  0.86767277  0.36930015  0.85250479     0.92600
O1229       O  0.78763723  0.40228033  0.85561059    -0.80900
O1230       O  0.80113808  0.49956030  0.82484946    -0.74500
Al1231     Al  0.81733523  0.41556401  0.82246667     1.90100
O1232       O  0.77421316  0.45535702  0.87076754    -0.73600
O1233       O  0.85563409  0.51331144  0.86459312    -0.73400
O1234       O  0.83085794  0.46440614  0.90495962    -0.79100
O1235       O  0.89568366  0.48684081  0.83671505    -0.77300
O1236       O  0.84049280  0.44552611  0.84585122    -1.13400
O1237       O  0.89590143  0.42500759  0.80791436    -0.72600
C1238       C  0.87633309  0.42258371  0.78433532     0.98100
C1239       C  0.76710900  0.42317328  0.86922301     0.94500
Al1240     Al  0.81735441  0.48048387  0.86455887     1.55600
O1241       O  0.84472983  0.37502414  0.83221387    -0.77200
C1242       C  0.88597200  0.51294873  0.85267652     0.98700
C1243       C  0.78382006  0.48164815  0.80543435     0.93600
O1244       O  0.78452456  0.44874072  0.80660657    -0.82500
O1245       O  0.93326934  0.32425800  0.54081698    -0.82000
C1246       C  0.91913679  0.38437027  0.65962402     0.97400
O1247       O  0.94401787  0.36401104  0.65233099    -0.71100
O1248       O  0.92264630  0.30451040  0.62986573    -0.74700
Al1249     Al  0.95350748  0.33913467  0.61386644     1.49000
C1250       C  0.90299333  0.28537963  0.61406014     0.92600
O1251       O  0.85220660  0.34933585  0.58770315    -0.80900
O1252       O  0.92161030  0.41729086  0.55349899    -0.74500
Al1253     Al  0.89421560  0.33785104  0.56519964     1.90100
O1254       O  0.86312726  0.40519250  0.58972951    -0.73600
O1255       O  0.95855678  0.41882751  0.60723535    -0.73400
O1256       O  0.90170036  0.40020330  0.63907118    -0.79100
O1257       O  0.98964966  0.37109710  0.60220774    -0.77300
O1258       O  0.92045915  0.36114632  0.59187251    -1.13400
O1259       O  0.96828472  0.30926493  0.57934780    -0.72600
C1260       C  0.95921053  0.30724611  0.55082136     0.98100
C1261       C  0.84186122  0.38036649  0.59209035     0.94500
Al1262     Al  0.91233884  0.40660071  0.59681249     1.55600
O1263       O  0.89419770  0.29459708  0.58690869    -0.77200
C1264       C  0.98744104  0.40319954  0.60866176     0.98700
C1265       C  0.90192901  0.40482474  0.53272785     0.93600
O1266       O  0.88778252  0.37551917  0.53673491    -0.82500
O1267       O  0.92633406  0.19078702  0.96949895    -0.82000
C1268       C  0.91701181  0.13061772  0.85031556     0.97400
O1269       O  0.94188920  0.14998350  0.85834210    -0.71100
O1270       O  0.92197586  0.21085293  0.88125088    -0.74700
Al1271     Al  0.95055366  0.17390227  0.89720527     1.49000
C1272       C  0.90070348  0.22996462  0.89621075     0.92600
O1273       O  0.84656422  0.16660345  0.92216702    -0.80900
O1274       O  0.91428510  0.09699953  0.95576941    -0.74500
Al1275     Al  0.88830871  0.17737033  0.94458723     1.90100
O1276       O  0.85768761  0.11074486  0.91959993    -0.73600
O1277       O  0.95259497  0.09412243  0.90297313    -0.73400
O1278       O  0.89788886  0.11543227  0.87022603    -0.79100
O1279       O  0.98540864  0.13973019  0.90887632    -0.77300
O1280       O  0.91556151  0.15330353  0.91824600    -1.13400
O1281       O  0.96472741  0.20241368  0.93217686    -0.72600
C1282       C  0.95376300  0.20569953  0.96022784     0.98100
C1283       C  0.83624539  0.13573064  0.91822354     0.94500
Al1284     Al  0.90671765  0.10819374  0.91272149     1.55600
O1285       O  0.88910742  0.22008800  0.92237550    -0.77200
C1286       C  0.98218096  0.10774025  0.90249125     0.98700
C1287       C  0.89471542  0.11015782  0.97679662     0.93600
O1288       O  0.88120746  0.13998725  0.97324298    -0.82500
O1289       O  0.62668153  0.10930999  0.78845044    -0.82000
C1290       C  0.59852446  0.07598691  0.90748701     0.97400
O1291       O  0.58624862  0.09382568  0.88535692    -0.71100
O1292       O  0.58872915  0.13332638  0.83604365    -0.74700
Al1293     Al  0.58613023  0.08385882  0.84324710     1.49000
C1294       C  0.61282065  0.15408537  0.84285235     0.92600
O1295       O  0.69767254  0.10217289  0.84695018    -0.80900
O1296       O  0.68192714  0.02441722  0.83345376    -0.74500
Al1297     Al  0.65899048  0.10246768  0.82062764     1.90100
O1298       O  0.68396505  0.06796281  0.88588591    -0.73600
O1299       O  0.61731074  0.00550719  0.85222333    -0.73400
O1300       O  0.62032974  0.05131694  0.90259936    -0.79100
O1301       O  0.57084060  0.03834947  0.85279776    -0.77300
O1302       O  0.63178001  0.07496128  0.84346727    -1.13400
O1303       O  0.58296200  0.07465048  0.79971079    -0.72600
C1304       C  0.59966642  0.09346282  0.78043700     0.98100
C1305       C  0.70359665  0.09044504  0.87380811     0.94500
Al1306     Al  0.64945228  0.04012110  0.86644082     1.55600
O1307       O  0.64393903  0.14333520  0.84258150    -0.77200
C1308       C  0.58491583  0.00899599  0.85628134     0.98700
C1309       C  0.68850487  0.03598294  0.80597136     0.93600
O1310       O  0.67659629  0.06495724  0.79683321    -0.82500
O1311       O  0.84110192  0.09522905  0.72373654    -0.82000
C1312       C  0.86034742  0.05739959  0.59823230     0.97400
O1313       O  0.88452447  0.06112940  0.61779392    -0.71100
O1314       O  0.88054483  0.12200640  0.64429067    -0.74700
Al1315     Al  0.88429027  0.07604184  0.66052738     1.49000
C1316       C  0.86407349  0.14746391  0.65591265     0.92600
O1317       O  0.78412549  0.11432268  0.65491282    -0.80900
O1318       O  0.80038575  0.01840587  0.68855160    -0.74500
Al1319     Al  0.81429666  0.10279666  0.68839573     1.90100
O1320       O  0.77243963  0.06061991  0.64232225    -0.73600
O1321       O  0.85418344  0.00362067  0.64874127    -0.73400
O1322       O  0.82943768  0.05137161  0.60734217    -0.79100
O1323       O  0.89448716  0.03005760  0.67507869    -0.77300
O1324       O  0.83838264  0.07169202  0.66588749    -1.13400
O1325       O  0.89320778  0.09272494  0.70238353    -0.72600
C1326       C  0.87357496  0.09721770  0.72608097     0.98100
C1327       C  0.76443714  0.09271593  0.64204817     0.94500
Al1328     Al  0.81597197  0.03628111  0.64834011     1.55600
O1329       O  0.84076000  0.14284778  0.67645146    -0.77200
C1330       C  0.88417542  0.00343502  0.66056345     0.98700
C1331       C  0.78335276  0.03665858  0.70838415     0.93600
O1332       O  0.78271874  0.06960217  0.70633925    -0.82500
O1333       O  0.54475827  0.32157091  0.96619870    -0.82000
C1334       C  0.54941041  0.39330309  0.85151686     0.97400
O1335       O  0.52643366  0.37100678  0.85870561    -0.71100
O1336       O  0.54663557  0.30883279  0.87670184    -0.74700
Al1337     Al  0.51823173  0.34364904  0.89608711     1.49000
C1338       C  0.56870945  0.28904313  0.88920967     0.92600
O1339       O  0.62175950  0.35005505  0.91668133    -0.80900
O1340       O  0.55478979  0.41489640  0.95952565    -0.74500
Al1341     Al  0.58162936  0.33702060  0.94060891     1.90100
O1342       O  0.61103595  0.40616102  0.91940599    -0.73600
O1343       O  0.51444541  0.42279635  0.90972742    -0.73400
O1344       O  0.56820876  0.40697279  0.87216059    -0.79100
O1345       O  0.48297151  0.37575123  0.91049876    -0.77300
O1346       O  0.55323806  0.36302785  0.91737066    -1.13400
O1347       O  0.50478337  0.31239956  0.93030774    -0.72600
C1348       C  0.51648256  0.30803559  0.95790507     0.98100
C1349       C  0.63198519  0.38115537  0.91445965     0.94500
Al1350     Al  0.56112682  0.40873887  0.91546511     1.55600
O1351       O  0.58053935  0.29613938  0.91579412    -0.77200
C1352       C  0.48518662  0.40850593  0.90883599     0.98700
C1353       C  0.57518671  0.40027073  0.97862598     0.93600
O1354       O  0.58998166  0.37172478  0.97165858    -0.82500
O1355       O  0.54305238  0.20160556  0.54738482    -0.82000
C1356       C  0.55059521  0.12996154  0.65949313     0.97400
O1357       O  0.52651108  0.15202812  0.65403259    -0.71100
O1358       O  0.54090065  0.21463684  0.63225550    -0.74700
Al1359     Al  0.51447597  0.17669078  0.61620757     1.49000
C1360       C  0.56638637  0.23126957  0.62140702     0.92600
O1361       O  0.61933669  0.16482688  0.59290672    -0.80900
O1362       O  0.54812761  0.10426185  0.55333199    -0.74500
Al1363     Al  0.57912101  0.18146534  0.57095208     1.90100
O1364       O  0.60647200  0.11023237  0.58829992    -0.73600
O1365       O  0.51242422  0.09707860  0.60610070    -0.73400
O1366       O  0.56703753  0.11403061  0.63804212    -0.79100
O1367       O  0.47912317  0.14269561  0.60631089    -0.77300
O1368       O  0.54970060  0.15666898  0.59431486    -1.13400
O1369       O  0.49880752  0.20470614  0.58107216    -0.72600
C1370       C  0.51283147  0.21212055  0.55474529     0.98100
C1371       C  0.62826705  0.13322321  0.59490960     0.94500
Al1372     Al  0.55739768  0.11062829  0.59617932     1.55600
O1373       O  0.58167771  0.22086600  0.59703509    -0.77200
C1374       C  0.48295006  0.11023903  0.60999132     0.98700
C1375       C  0.56604233  0.11966699  0.53265173     0.93600
O1376       O  0.58284550  0.14710251  0.53877141    -0.82500
C1377       C  0.49845846  0.29491494  0.01249491    -0.12500
C1378       C  0.49945907  0.28453654  0.98090188     0.04500
C1379       C  0.49408516  0.24911096  0.97368857    -0.07800
C1380       C  0.49099800  0.22582841  0.50159510    -0.08500
C1381       C  0.49629733  0.23667784  0.53266581    -0.03100
C1382       C  0.49769896  0.27267202  0.53916006     0.03800
N1383       N  0.50485410  0.28474453  0.57015135     0.66300
H1384       H  0.50277994  0.32203437  0.01840095     0.15200
H1385       H  0.49031225  0.19820095  0.49624845     0.14900
N1386       N  0.49551752  0.23723506  0.94193554     0.74000
O1387       O  0.53522722  0.29435358  0.57675978    -0.39500
O1388       O  0.47995483  0.29220405  0.58856307    -0.39400
O1389       O  0.52444201  0.22856361  0.92985702    -0.40100
O1390       O  0.46025782  0.23745499  0.43151744    -0.40200
C1391       C  0.70599066  0.07859646  0.62174053    -0.12500
C1392       C  0.73078500  0.10417264  0.62817969     0.04500
C1393       C  0.72202783  0.13957087  0.62234305    -0.07800
C1394       C  0.68899756  0.14835834  0.61066404    -0.08500
C1395       C  0.66382381  0.12273079  0.60525353    -0.03100
C1396       C  0.67286379  0.08736578  0.61090666     0.03800
N1397       N  0.64844718  0.05982289  0.60702365     0.66300
H1398       H  0.71177032  0.05133183  0.62625355     0.15200
H1399       H  0.68284861  0.17557558  0.60641259     0.14900
N1400       N  0.74606675  0.16703093  0.62815783     0.74000
O1401       O  0.62716263  0.05312945  0.62895083    -0.39500
O1402       O  0.65322355  0.03782357  0.58534864    -0.39400
O1403       O  0.75749464  0.18482289  0.60538936    -0.40100
O1404       O  0.74917344  0.17857832  0.65572820    -0.40200
C1405       C  0.57012597  0.20336052  0.84453532    -0.12500
C1406       C  0.60368809  0.19063056  0.85136376     0.04500
C1407       C  0.62658969  0.21228288  0.86802969    -0.07800
C1408       C  0.61497818  0.24481426  0.87902545    -0.08500
C1409       C  0.58094495  0.25677302  0.87339156    -0.03100
C1410       C  0.55872421  0.23614523  0.85511104     0.03800
N1411       N  0.52380118  0.24697652  0.84876537     0.66300
H1412       H  0.55215828  0.18742301  0.83149982     0.15200
H1413       H  0.63250327  0.26049314  0.89280538     0.14900
N1414       N  0.66103443  0.20097532  0.87557817     0.74000
O1415       O  0.51728578  0.26265484  0.82341204    -0.39500
O1416       O  0.49904225  0.23419283  0.86454679    -0.39400
O1417       O  0.68662384  0.21298972  0.86037146    -0.40100
O1418       O  0.66621645  0.18382548  0.90044256    -0.40200
C1419       C  0.74916803  0.02529637  0.79048493    -0.12500
C1420       C  0.71402193  0.01889884  0.78464996     0.04500
C1421       C  0.70428620  0.00898695  0.75409614    -0.07800
C1422       C  0.72866413  0.01051680  0.72917524    -0.08500
C1423       C  0.76306999  0.02090158  0.73454489    -0.03100
C1424       C  0.77370025  0.02627023  0.76582329     0.03800
N1425       N  0.80859382  0.03631346  0.77250093     0.66300
H1426       H  0.75697135  0.03324654  0.81379589     0.15200
H1427       H  0.71999693  0.00633203  0.70534275     0.14900
N1428       N  0.66928395  0.99889686  0.74799345     0.74000
O1429       O  0.81403631  0.06402318  0.78756370    -0.39500
O1430       O  0.83317811  0.01471285  0.76835856    -0.39400
O1431       O  0.64856408  0.01970426  0.73465598    -0.40100
O1432       O  0.66006039  0.96791650  0.75328258    -0.40200
C1433       C  0.58790798  0.05904915  0.96309053    -0.12500
C1434       C  0.58620000  0.08436789  0.93927777     0.04500
C1435       C  0.57184866  0.11769838  0.94605249    -0.07800
C1436       C  0.56786030  0.13081575  0.47673145    -0.08500
C1437       C  0.56884353  0.10619618  0.50080572    -0.03100
C1438       C  0.57708988  0.06715865  0.99373895     0.03800
N1439       N  0.58077545  0.04595655  0.51872887     0.66300
H1440       H  0.59774555  0.03307025  0.95794069     0.15200
H1441       H  0.56059204  0.15768000  0.48176000     0.14900
N1442       N  0.57016696  0.14493640  0.92311005     0.74000
O1443       O  0.55224283  0.02895291  0.02993879    -0.39500
O1444       O  0.61005843  0.03517060  0.52793622    -0.39400
O1445       O  0.54282092  0.14897433  0.90730455    -0.40100
O1446       O  0.59208871  0.16920662  0.92392794    -0.40200
C1447       C  0.55077529  0.10486841  0.74482248    -0.12500
C1448       C  0.58675648  0.10041751  0.74907414     0.04500
C1449       C  0.61024648  0.10772067  0.72416613    -0.07800
C1450       C  0.59726391  0.11812817  0.69552220    -0.08500
C1451       C  0.56152125  0.12239335  0.69118199    -0.03100
C1452       C  0.53799228  0.11635211  0.71598346     0.03800
N1453       N  0.50139937  0.12145874  0.71211967     0.66300
H1454       H  0.53274446  0.10051355  0.76415782     0.15200
H1455       H  0.61546291  0.12332600  0.67643701     0.14900
N1456       N  0.64732376  0.10547668  0.72741639     0.74000
O1457       O  0.48371000  0.09902755  0.69784713    -0.39500
O1458       O  0.48696323  0.14914180  0.72187584    -0.39400
O1459       O  0.66424497  0.08444093  0.71019401    -0.40100
O1460       O  0.66317294  0.13108277  0.73894509    -0.40200
C1461       C  0.91086982  0.07590955  0.52322876    -0.12500
C1462       C  0.88540149  0.09061128  0.00525919     0.04500
C1463       C  0.85001239  0.09157963  0.51648514    -0.07800
C1464       C  0.84209934  0.07677831  0.54561287    -0.08500
C1465       C  0.86839434  0.06318782  0.56462641    -0.03100
C1466       C  0.90292155  0.06131838  0.55264388     0.03800
N1467       N  0.93023615  0.04531210  0.57030544     0.66300
H1468       H  0.93755442  0.07561904  0.51472026     0.15200
H1469       H  0.81550044  0.07829082  0.55428392     0.14900
N1470       N  0.82222428  0.10289755  0.99760870     0.74000
O1471       O  0.92991571  0.01285571  0.57531025    -0.39500
O1472       O  0.95633528  0.06288704  0.57821126    -0.39400
O1473       O  0.79750117  0.08297810  0.99065991    -0.40100
O1474       O  0.81701959  0.13544190  0.99695580    -0.40200
C1475       C  0.93238286  0.11066590  0.79647356    -0.12500
C1476       C  0.90855084  0.12650272  0.81728563     0.04500
C1477       C  0.87446092  0.13389882  0.80764250    -0.07800
C1478       C  0.86440805  0.12473384  0.77758063    -0.08500
C1479       C  0.88738787  0.10737503  0.75688535    -0.03100
C1480       C  0.92192339  0.10076504  0.76630468     0.03800
N1481       N  0.94560989  0.08160131  0.74670722     0.66300
H1482       H  0.95841451  0.10418392  0.80426664     0.15200
H1483       H  0.83806863  0.13106784  0.77054663     0.14900
N1484       N  0.84943281  0.14976319  0.82854158     0.74000
O1485       O  0.96805876  0.09758765  0.73049357    -0.39500
O1486       O  0.94792389  0.04892277  0.74972583    -0.39400
O1487       O  0.85714992  0.17664102  0.84400385    -0.40100
O1488       O  0.81937995  0.13702952  0.83135725    -0.40200
C1489       C  0.78808850  0.09303302  0.91824352    -0.12500
C1490       C  0.79938074  0.12721682  0.91182957     0.04500
C1491       C  0.77646711  0.15039379  0.89647624    -0.07800
C1492       C  0.74483952  0.13802449  0.88505734    -0.08500
C1493       C  0.73447963  0.10341189  0.89025171    -0.03100
C1494       C  0.75562489  0.08134987  0.90841088     0.03800
N1495       N  0.74566176  0.04630482  0.91521780     0.66300
H1496       H  0.80507045  0.07470928  0.93012933     0.15200
H1497       H  0.72833924  0.15555588  0.87176511     0.14900
N1498       N  0.78488983  0.18626189  0.89188936     0.74000
O1499       O  0.75325696  0.02219898  0.89612159    -0.39500
O1500       O  0.73354898  0.03881655  0.94203319    -0.39400
O1501       O  0.78687371  0.19844128  0.86437980    -0.40100
O1502       O  0.78099343  0.20698692  0.91465599    -0.40200
C1503       C  0.87873384  0.22647805  0.60447433    -0.12500
C1504       C  0.89115744  0.25102150  0.62615175     0.04500
C1505       C  0.89312304  0.24142110  0.65818309    -0.07800
C1506       C  0.88313965  0.20782839  0.66767337    -0.08500
C1507       C  0.87233544  0.18313016  0.64560751    -0.03100
C1508       C  0.87011019  0.19264829  0.61381351     0.03800
N1509       N  0.85927140  0.16812311  0.59069907     0.66300
H1510       H  0.87694180  0.23304296  0.57977099     0.15200
H1511       H  0.88488455  0.20063008  0.69224465     0.14900
N1512       N  0.90538532  0.26522598  0.68129642     0.74000
O1513       O  0.82782555  0.16741555  0.58254308    -0.39500
O1514       O  0.88184764  0.15152423  0.57484655    -0.39400
O1515       O  0.88386895  0.28264938  0.69762542    -0.40100
O1516       O  0.93711374  0.26484155  0.68864856    -0.40200
C1517       C  0.97852801  0.29046250  0.49740459    -0.12500
C1518       C  0.97532168  0.28142030  0.52924879     0.04500
C1519       C  0.97573142  0.24574005  0.53765194    -0.07800
C1520       C  0.97271493  0.22036950  0.51412561    -0.08500
C1521       C  0.97019685  0.23050571  0.98197953    -0.03100
C1522       C  0.97394019  0.26582124  0.97327122     0.03800
N1523       N  0.97050981  0.27655259  0.94128643     0.66300
H1524       H  0.97840743  0.31773586  0.49061647     0.15200
H1525       H  0.96887299  0.19336225  0.52079755     0.14900
N1526       N  0.97497635  0.23511209  0.56991622     0.74000
O1527       O  0.94269044  0.29117057  0.93258505    -0.39500
O1528       O  0.99728115  0.27831262  0.92396636    -0.39400
O1529       O  0.95256508  0.21354001  0.57938094    -0.40100
O1530       O  0.00020436  0.24239502  0.58740103    -0.40200
C1531       C  0.86466882  0.40571138  0.72996797    -0.12500
C1532       C  0.88968613  0.41319070  0.75278543     0.04500
C1533       C  0.92533513  0.40818483  0.74529547    -0.07800
C1534       C  0.93500038  0.39676880  0.71505977    -0.08500
C1535       C  0.90953969  0.39035326  0.69246049    -0.03100
C1536       C  0.87418220  0.39387652  0.70045236     0.03800
N1537       N  0.84743426  0.38482920  0.67888980     0.66300
H1538       H  0.83705907  0.40805689  0.73508286     0.15200
H1539       H  0.96234184  0.39438782  0.70883672     0.14900
N1540       N  0.95189826  0.41543945  0.76753512     0.74000
O1541       O  0.84274436  0.35322224  0.67198660    -0.39500
O1542       O  0.82533741  0.40753005  0.67071535    -0.39400
O1543       O  0.97138955  0.39107773  0.77710257    -0.40100
O1544       O  0.95979179  0.44666495  0.77320477    -0.40200
C1545       C  0.90483803  0.45640733  0.95684346    -0.12500
C1546       C  0.87012336  0.45265665  0.94699305     0.04500
C1547       C  0.84544414  0.43876328  0.96813148    -0.07800
C1548       C  0.85676363  0.42167739  0.49509771    -0.08500
C1549       C  0.89144758  0.42488409  0.50475253    -0.03100
C1550       C  0.91565290  0.44359472  0.98607590     0.03800
N1551       N  0.95146782  0.44574819  0.99443669     0.66300
H1552       H  0.92406721  0.46765093  0.94110801     0.15200
H1553       H  0.83843329  0.40683213  0.50916195     0.14900
N1554       N  0.80965295  0.43548263  0.95991319     0.74000
O1555       O  0.97200646  0.42088645  0.98785949    -0.39500
O1556       O  0.95988285  0.47845421  0.50590002    -0.39400
O1557       O  0.79869567  0.40693253  0.94930734    -0.40100
O1558       O  0.78625254  0.44939577  0.46639744    -0.40200
C1559       C  0.85681516  0.31938062  0.88756202    -0.12500
C1560       C  0.87520597  0.33320581  0.86208999     0.04500
C1561       C  0.90079926  0.31274957  0.84685530    -0.07800
C1562       C  0.90808047  0.27888808  0.85771164    -0.08500
C1563       C  0.89026119  0.26494138  0.88387293    -0.03100
C1564       C  0.86411259  0.28578718  0.89876726     0.03800
N1565       N  0.84506968  0.27390837  0.92571293     0.66300
H1566       H  0.83710308  0.33516121  0.89936034     0.15200
H1567       H  0.92829316  0.26377478  0.84595476     0.14900
N1568       N  0.92017962  0.32637633  0.82085272     0.74000
O1569       O  0.85868500  0.27614095  0.95248071    -0.39500
O1570       O  0.81252918  0.27058406  0.92389132    -0.39400
O1571       O  0.95174880  0.33415641  0.82424329    -0.40100
O1572       O  0.90734225  0.32592982  0.79369810    -0.40200
C1573       C  0.72001135  0.42476655  0.90960505    -0.12500
C1574       C  0.73377666  0.41015954  0.88199534     0.04500
C1575       C  0.71508387  0.38368447  0.86657518    -0.07800
C1576       C  0.68268416  0.37314882  0.87849396    -0.08500
C1577       C  0.66824828  0.38896481  0.90534368    -0.03100
C1578       C  0.68766297  0.41423641  0.92148386     0.03800
N1579       N  0.67585161  0.42801064  0.95090952     0.66300
H1580       H  0.73448378  0.44442757  0.92209016     0.15200
H1581       H  0.66792266  0.35388759  0.86576850     0.14900
N1582       N  0.72743386  0.36909785  0.83757836     0.74000
O1583       O  0.69121565  0.41871725  0.97564139    -0.39500
O1584       O  0.65680647  0.45498704  0.95138394    -0.39400
O1585       O  0.73794582  0.33783719  0.83655402    -0.40100
O1586       O  0.72639196  0.38697249  0.81267716    -0.40200
C1587       C  0.75851851  0.43080088  0.60917399    -0.12500
C1588       C  0.73989462  0.40724234  0.62810612     0.04500
C1589       C  0.75342358  0.37306651  0.63189883    -0.07800
C1590       C  0.78557504  0.36382889  0.61799705    -0.08500
C1591       C  0.80520090  0.38839223  0.60103022    -0.03100
C1592       C  0.79076308  0.42192448  0.59596872     0.03800
N1593       N  0.80868146  0.44766367  0.57780374     0.66300
H1594       H  0.74852617  0.45693396  0.60514374     0.15200
H1595       H  0.79619680  0.33798050  0.62219939     0.14900
N1596       N  0.73603350  0.34805317  0.65120560     0.74000
O1597       O  0.80219640  0.45073300  0.54894049    -0.39500
O1598       O  0.82469290  0.47169808  0.59162979    -0.39400
O1599       O  0.71846126  0.32432007  0.63860227    -0.40100
O1600       O  0.74309326  0.34606977  0.68004002    -0.40200
C1601       C  0.70228979  0.50146244  0.76065360    -0.12500
C1602       C  0.71437662  0.49722827  0.72965881     0.04500
C1603       C  0.75068057  0.49664257  0.72411514    -0.07800
C1604       C  0.77387925  0.49676985  0.74953520    -0.08500
C1605       C  0.76157017  0.49740422  0.78074115    -0.03100
C1606       C  0.72545491  0.50138302  0.78609173     0.03800
N1607       N  0.71160682  0.50059712  0.81735254     0.66300
H1608       H  0.67466524  0.50110388  0.76534064     0.15200
H1609       H  0.80137952  0.49260710  0.74493573     0.14900
N1610       N  0.76426175  0.49143205  0.69307957     0.74000
O1611       O  0.70401044  0.52881898  0.83111878    -0.39500
O1612       O  0.70204820  0.47200548  0.82920390    -0.39400
O1613       O  0.77770685  0.51666913  0.67844018    -0.40100
O1614       O  0.76848686  0.46084064  0.68275404    -0.40200
C1615       C  0.55233953  0.28699288  0.64930399    -0.12500
C1616       C  0.57753314  0.26451792  0.63601024     0.04500
C1617       C  0.61230298  0.27616742  0.63346732    -0.07800
C1618       C  0.62093705  0.30989463  0.64323090    -0.08500
C1619       C  0.59539161  0.33287153  0.65483415    -0.03100
C1620       C  0.56085627  0.32113695  0.65813787     0.03800
N1621       N  0.53413003  0.34364638  0.67030726     0.66300
H1622       H  0.52549617  0.27874409  0.65120425     0.15200
H1623       H  0.64757510  0.31858393  0.64078570     0.14900
N1624       N  0.63917111  0.25410923  0.62087424     0.74000
O1625       O  0.51724309  0.36295895  0.65177801    -0.39500
O1626       O  0.52300841  0.33925012  0.69800686    -0.39400
O1627       O  0.65166850  0.26026698  0.59391935    -0.40100
O1628       O  0.65408457  0.23224228  0.63847863    -0.40200
C1629       C  0.61975369  0.41359819  0.51744707    -0.12500
C1630       C  0.58484890  0.41732620  0.00821232     0.04500
C1631       C  0.56229290  0.43876943  0.52615945    -0.07800
C1632       C  0.57388604  0.45278277  0.55439634    -0.08500
C1633       C  0.60784858  0.44617461  0.56504087    -0.03100
C1634       C  0.63141093  0.42766773  0.54564099     0.03800
N1635       N  0.66633100  0.42061387  0.55523294     0.66300
H1636       H  0.63728108  0.39658553  0.00556470     0.15200
H1637       H  0.55563346  0.46742935  0.56888475     0.14900
N1638       N  0.52676793  0.44368321  0.51757842     0.74000
O1639       O  0.67242254  0.39585975  0.57401637    -0.39500
O1640       O  0.69133616  0.43542631  0.54133405    -0.39400
O1641       O  0.50451474  0.42125431  0.52558126    -0.40100
O1642       O  0.51674553  0.47303813  0.50756016    -0.40200
C1643       C  0.55828336  0.39240064  0.76280896    -0.12500
C1644       C  0.57696512  0.42316539  0.75797259     0.04500
C1645       C  0.58233464  0.44613723  0.78310268    -0.07800
C1646       C  0.57149929  0.43639410  0.81323516    -0.08500
C1647       C  0.55505567  0.40429306  0.81868293    -0.03100
C1648       C  0.54712910  0.38281593  0.79292442     0.03800
N1649       N  0.53098600  0.34973635  0.79721611     0.66300
H1650       H  0.55435639  0.37462744  0.74343619     0.15200
H1651       H  0.57645057  0.45388034  0.83263744     0.14900
N1652       N  0.59852819  0.47931007  0.77838938     0.74000
O1653       O  0.49840227  0.34726206  0.79479412    -0.39500
O1654       O  0.54958538  0.32245885  0.79745775    -0.39400
O1655       O  0.58738633  0.49964225  0.75734453    -0.40100
O1656       O  0.61950590  0.49071038  0.79847044    -0.40200
C1657       C  0.06992171  0.06150211  0.88875911    -0.12500
C1658       C  0.06103784  0.03840945  0.86438122     0.04500
C1659       C  0.02767065  0.04117715  0.85125624    -0.07800
C1660       C  0.00332522  0.06470492  0.86376159    -0.08500
C1661       C  0.01116943  0.08608233  0.88950550    -0.03100
C1662       C  0.04518372  0.08520006  0.90147046     0.03800
N1663       N  0.05390245  0.10543843  0.92834886     0.66300
H1664       H  0.09515928  0.05915652  0.89971866     0.15200
H1665       H  0.97763803  0.06580291  0.85347406     0.14900
N1666       N  0.01782698  0.01965983  0.82552024     0.74000
O1667       O  0.04425926  0.09554261  0.95532905    -0.39500
O1668       O  0.07526399  0.13009033  0.92566899    -0.39400
O1669       O  0.99588892  0.99577671  0.82984059    -0.40100
O1670       O  0.02552160  0.02896841  0.79789337    -0.40200
C1671       C  0.43813400  0.03345389  0.64986657    -0.12500
C1672       C  0.40313372  0.04373378  0.65089191     0.04500
C1673       C  0.39386460  0.07633942  0.63756961    -0.07800
C1674       C  0.41970325  0.09789639  0.62397419    -0.08500
C1675       C  0.45474366  0.08688585  0.62223703    -0.03100
C1676       C  0.46349833  0.05384150  0.63543435     0.03800
N1677       N  0.49824854  0.04011129  0.63462474     0.66300
H1678       H  0.44600242  0.00824675  0.65908306     0.15200
H1679       H  0.41227712  0.12314021  0.61460547     0.14900
N1680       N  0.35851772  0.08813317  0.63804705     0.74000
O1681       O  0.51723621  0.04277217  0.65849244    -0.39500
O1682       O  0.50761363  0.02022018  0.61243648    -0.39400
O1683       O  0.34749837  0.10664471  0.66059538    -0.40100
O1684       O  0.34009880  0.08472645  0.61390176    -0.40200
C1685       C  0.23987776  0.99402069  0.79092975    -0.12500
C1686       C  0.20445748  0.99268264  0.78326431     0.04500
C1687       C  0.19484647  0.99641721  0.75148594    -0.07800
C1688       C  0.22076466  0.99721590  0.72784496    -0.08500
C1689       C  0.25619751  0.99467566  0.73535913    -0.03100
C1690       C  0.26568848  0.99460383  0.76726939     0.03800
N1691       N  0.30134472  0.99059509  0.77584515     0.66300
H1692       H  0.24770118  0.99039789  0.81511970     0.15200
H1693       H  0.21312552  0.99672384  0.70340821     0.14900
N1694       N  0.15882535  0.99658666  0.74294322     0.74000
O1695       O  0.31920324  0.01718663  0.78180967    -0.39500
O1696       O  0.31345300  0.96062986  0.78176162    -0.39400
O1697       O  0.13709371  0.01502314  0.75814016    -0.40100
O1698       O  0.14854122  0.97811867  0.72039701    -0.40200
C1699       C  0.97248342  0.55648321  0.86973513    -0.12500
C1700       C  0.96310585  0.58164551  0.89239996     0.04500
C1701       C  0.92737942  0.58733548  0.89860966    -0.07800
C1702       C  0.90224101  0.56644807  0.88378134    -0.08500
C1703       C  0.91186906  0.54016379  0.86198936    -0.03100
C1704       C  0.94763981  0.53640480  0.85432283     0.03800
N1705       N  0.95954145  0.51188223  0.83123782     0.66300
H1706       H  0.99963097  0.55265350  0.86332033     0.15200
H1707       H  0.87513545  0.56992683  0.89039909     0.14900
N1708       N  0.91625873  0.61287678  0.92103098     0.74000
O1709       O  0.95807525  0.51977553  0.80249356    -0.39500
O1710       O  0.97654037  0.48518020  0.83959058    -0.39400
O1711       O  0.90205656  0.64081033  0.91179867    -0.40100
O1712       O  0.91590511  0.60537034  0.94989973    -0.40200
C1713       C  0.07856836  0.80583619  0.84774521    -0.12500
C1714       C  0.10527206  0.82389868  0.86274084     0.04500
C1715       C  0.12305750  0.80779296  0.88763672    -0.07800
C1716       C  0.11284987  0.77467516  0.89803954    -0.08500
C1717       C  0.08491983  0.75707878  0.88406310    -0.03100
C1718       C  0.06851743  0.77260832  0.85788590     0.03800
N1719       N  0.04077169  0.75571625  0.84201189     0.66300
H1720       H  0.06498346  0.81790307  0.82829596     0.15200
H1721       H  0.12615371  0.76324796  0.91792781     0.14900
N1722       N  0.14957737  0.82586383  0.90420100     0.74000
O1723       O  0.00963977  0.76255427  0.84965170    -0.39500
O1724       O  0.04715717  0.73837972  0.81740475    -0.39400
O1725       O  0.14126461  0.84951453  0.92354583    -0.40100
O1726       O  0.18072091  0.81526223  0.90253842    -0.40200
C1727       C  0.96712587  0.95391210  0.63885485    -0.12500
C1728       C  0.95402902  0.92436921  0.62373848     0.04500
C1729       C  0.91792308  0.91867227  0.62450517    -0.07800
C1730       C  0.89551590  0.94356864  0.63853877    -0.08500
C1731       C  0.90855025  0.97395046  0.65282976    -0.03100
C1732       C  0.94506444  0.97816009  0.65375109     0.03800
N1733       N  0.96039491  0.00718740  0.66921185     0.66300
H1734       H  0.99499081  0.95790558  0.63973732     0.15200
H1735       H  0.86768052  0.93964741  0.63724818     0.14900
N1736       N  0.90352015  0.88880750  0.60962013     0.74000
O1737       O  0.96785487  0.00467090  0.69791578    -0.39500
O1738       O  0.97292914  0.03181781  0.65311773    -0.39400
O1739       O  0.89119882  0.86441028  0.62612768    -0.40100
O1740       O  0.89832045  0.88924675  0.58040434    -0.40200
C1741       C  0.20087394  0.93751182  0.63301184    -0.12500
C1742       C  0.22723634  0.91225084  0.63673106     0.04500
C1743       C  0.21919039  0.87680412  0.63152545    -0.07800
C1744       C  0.18545303  0.86749733  0.62265384    -0.08500
C1745       C  0.15912156  0.89283580  0.61933960    -0.03100
C1746       C  0.16715155  0.92819676  0.62468358     0.03800
N1747       N  0.14158916  0.95519092  0.62105401     0.66300
H1748       H  0.20618689  0.96483569  0.63715150     0.15200
H1749       H  0.17973658  0.84022850  0.61867847     0.14900
N1750       N  0.24490072  0.84994324  0.63493094     0.74000
O1751       O  0.12503062  0.96633540  0.64481021    -0.39500
O1752       O  0.13990738  0.97176728  0.59548107    -0.39400
O1753       O  0.24484817  0.83110175  0.65926111    -0.40100
O1754       O  0.26406205  0.84165722  0.61182218    -0.40200
C1755       C  0.99268785  0.74418083  0.54133601    -0.12500
C1756       C  0.99793209  0.77922492  0.53324156     0.04500
C1757       C  0.00075369  0.78832079  0.50121590    -0.07800
C1758       C  0.99553820  0.75827401  0.98041489    -0.08500
C1759       C  0.00045717  0.72284046  0.98786840    -0.03100
C1760       C  0.99887551  0.71261641  0.01976501     0.03800
N1761       N  0.00275455  0.67674579  0.02845988     0.66300
H1762       H  0.99129250  0.73676195  0.56590383     0.15200
H1763       H  0.99695727  0.76665945  0.95611397     0.14900
N1764       N  0.00604868  0.82390181  0.49223421     0.74000
O1765       O  0.01955617  0.66729475  0.53871207    -0.39500
O1766       O  0.97607348  0.65807721  0.03165658    -0.39400
O1767       O  0.03322525  0.83245412  0.47732999    -0.40100
O1768       O  0.98425952  0.84709808  0.50037449    -0.40200
C1769       C  0.07831842  0.86795878  0.74861092    -0.12500
C1770       C  0.07038797  0.90152452  0.76023054     0.04500
C1771       C  0.04702009  0.92286814  0.74351557    -0.07800
C1772       C  0.03458028  0.91171202  0.71443686    -0.08500
C1773       C  0.04461782  0.87919697  0.70186069    -0.03100
C1774       C  0.06568470  0.85668802  0.71971323     0.03800
N1775       N  0.07740351  0.82388505  0.70743721     0.66300
H1776       H  0.09563161  0.85076281  0.76145976     0.15200
H1777       H  0.01812844  0.92919505  0.70098335     0.14900
N1778       N  0.03721807  0.95663480  0.75475378     0.74000
O1779       O  0.10120691  0.82297137  0.68680173    -0.39500
O1780       O  0.06667986  0.79584023  0.71952144    -0.39400
O1781       O  0.05464278  0.98285857  0.74637733    -0.40100
O1782       O  0.00767893  0.96097859  0.76743209    -0.40200
C1783       C  0.11797926  0.93148635  0.97096139    -0.12500
C1784       C  0.09088790  0.93569748  0.94945849     0.04500
C1785       C  0.05640928  0.92808976  0.95896306    -0.07800
C1786       C  0.04985447  0.91472788  0.98902638    -0.08500
C1787       C  0.07914799  0.91149221  0.51040100    -0.03100
C1788       C  0.11340243  0.91728266  0.49968275     0.03800
N1789       N  0.14258462  0.90688929  0.51815263     0.66300
H1790       H  0.14456979  0.93666820  0.96378499     0.15200
H1791       H  0.02463566  0.91651691  0.49979968     0.14900
N1792       N  0.02786837  0.93363338  0.93821027     0.74000
O1793       O  0.15346437  0.87575213  0.51698468    -0.39500
O1794       O  0.16059439  0.92970286  0.53159470    -0.39400
O1795       O  0.01091386  0.90796018  0.92821221    -0.40100
O1796       O  0.01710184  0.96424830  0.93287634    -0.40200
C1797       C  0.07668181  0.44093687  0.62688523    -0.12500
C1798       C  0.06870567  0.46162613  0.65357811     0.04500
C1799       C  0.03482942  0.45977961  0.66651762    -0.07800
C1800       C  0.00919787  0.44072369  0.65108411    -0.08500
C1801       C  0.01662007  0.42203504  0.62335624    -0.03100
C1802       C  0.05102613  0.42112107  0.61188305     0.03800
N1803       N  0.05965195  0.40271291  0.58365082     0.66300
H1804       H  0.10237081  0.44195023  0.61620917     0.15200
H1805       H  0.98315004  0.44022618  0.66112287     0.14900
N1806       N  0.02598099  0.47708017  0.69530237     0.74000
O1807       O  0.05179908  0.41569027  0.55737558    -0.39500
O1808       O  0.07894787  0.37594756  0.58474317    -0.39400
O1809       O  0.00164369  0.49939434  0.69601625    -0.40100
O1810       O  0.03897188  0.46643016  0.72071519    -0.40200
C1811       C  0.11394184  0.60550698  0.78249457    -0.12500
C1812       C  0.08916212  0.59668476  0.75990389     0.04500
C1813       C  0.05341401  0.59935173  0.76812380    -0.07800
C1814       C  0.04350418  0.60985445  0.79865560    -0.08500
C1815       C  0.06876044  0.61755616  0.82113633    -0.03100
C1816       C  0.10418975  0.61563567  0.81262125     0.03800
N1817       N  0.13083788  0.62433980  0.83434530     0.66300
H1818       H  0.14150902  0.60483449  0.77689678     0.15200
H1819       H  0.01614503  0.61094980  0.80506475     0.14900
N1820       N  0.02694582  0.59169676  0.74594197     0.74000
O1821       O  0.15129565  0.60083702  0.84400740    -0.39500
O1822       O  0.13789715  0.65595927  0.83908191    -0.39400
O1823       O  0.01287514  0.56208259  0.74618682    -0.40100
O1824       O  0.01352198  0.61611982  0.73015115    -0.40200
C1825       C  0.12999359  0.56737760  0.54802784    -0.12500
C1826       C  0.10510781  0.55124119  0.56711440     0.04500
C1827       C  0.07071724  0.54777156  0.55589521    -0.07800
C1828       C  0.06585119  0.56592049  0.02608640    -0.08500
C1829       C  0.08968992  0.58704289  0.00999457    -0.03100
C1830       C  0.12056727  0.58310221  0.51976658     0.03800
N1831       N  0.14698680  0.60039974  0.50185499     0.66300
H1832       H  0.15649735  0.57012565  0.55609089     0.15200
H1833       H  0.03996998  0.56230978  0.01683560     0.14900
N1834       N  0.04513642  0.52897721  0.57351496     0.74000
O1835       O  0.15283986  0.63222519  0.50698344    -0.39500
O1836       O  0.16981164  0.58229309  0.48774243    -0.39400
O1837       O  0.01994797  0.54508358  0.58627497    -0.40100
O1838       O  0.04503741  0.49608531  0.57255446    -0.40200
C1839       C  0.12232556  0.69791028  0.64621790    -0.12500
C1840       C  0.09731396  0.67131055  0.64629842     0.04500
C1841       C  0.06282320  0.67994362  0.63790515    -0.07800
C1842       C  0.05415768  0.71435713  0.62961211    -0.08500
C1843       C  0.07918451  0.74095285  0.62947212    -0.03100
C1844       C  0.11371021  0.73230013  0.63778315     0.03800
N1845       N  0.14028037  0.75814399  0.63845042     0.66300
H1846       H  0.14896876  0.69200373  0.65258661     0.15200
H1847       H  0.02752853  0.72024544  0.62318301     0.14900
N1848       N  0.03594675  0.65440338  0.63874011     0.74000
O1849       O  0.15015913  0.76989765  0.66451749    -0.39500
O1850       O  0.15865326  0.76340570  0.61418940    -0.39400
O1851       O  0.02352708  0.64436423  0.66474426    -0.40100
O1852       O  0.02379670  0.64268492  0.61347707    -0.40200
C1853       C  0.43329148  0.49063427  0.89633087    -0.12500
C1854       C  0.41084269  0.48096258  0.87206598     0.04500
C1855       C  0.40800182  0.44526632  0.86463821    -0.07800
C1856       C  0.43030055  0.42066015  0.87912191    -0.08500
C1857       C  0.45461511  0.43110899  0.90178444    -0.04700
C1858       C  0.45447458  0.46626072  0.91139104     0.03800
N1859       N  0.47587506  0.47771494  0.93653295     0.66300
H1860       H  0.43448081  0.51761442  0.90384941     0.15200
H1861       H  0.43007929  0.39380372  0.87122341     0.14900
N1862       N  0.38428716  0.43394056  0.84126101     0.74000
O1863       O  0.50270610  0.49537460  0.93053769    -0.39500
O1864       O  0.46362090  0.47744587  0.96413562    -0.39400
O1865       O  0.39495359  0.42884347  0.81350022    -0.40100
O1866       O  0.35420909  0.42418464  0.84930505    -0.40200
C1867       C  0.22772253  0.63837680  0.88457057    -0.12500
C1868       C  0.23840674  0.60324921  0.88544516     0.04500
C1869       C  0.21756462  0.57876692  0.90132460    -0.07800
C1870       C  0.18565405  0.58915967  0.91422342    -0.08500
C1871       C  0.17387693  0.62392104  0.91212343    -0.03100
C1872       C  0.19613228  0.64911821  0.89854561     0.03800
N1873       N  0.18714819  0.68544107  0.89864063     0.66300
H1874       H  0.24420896  0.65761139  0.87332654     0.15200
H1875       H  0.16936790  0.56938006  0.92489933     0.14900
N1876       N  0.22718845  0.54267796  0.90253631     0.74000
O1877       O  0.18745500  0.70214431  0.92417012    -0.39500
O1878       O  0.18526794  0.70198475  0.87306009    -0.39400
O1879       O  0.23688479  0.52933841  0.92814013    -0.40100
O1880       O  0.22166035  0.52326585  0.87922961    -0.40200
C1881       C  0.23378898  0.51688896  0.78683371    -0.12500
C1882       C  0.26883293  0.52202333  0.77856495     0.04500
C1883       C  0.27885783  0.51887531  0.74670662    -0.07800
C1884       C  0.25353759  0.51411766  0.72360924    -0.08500
C1885       C  0.21801367  0.51303315  0.73150012    -0.03100
C1886       C  0.20834762  0.51270012  0.76359482     0.03800
N1887       N  0.17246883  0.51203293  0.77273639     0.66300
H1888       H  0.22559794  0.51964027  0.81114809     0.15200
H1889       H  0.26134253  0.51535355  0.69913297     0.14900
N1890       N  0.31429583  0.52363097  0.73719378     0.74000
O1891       O  0.15591113  0.48383262  0.77111381    -0.39500
O1892       O  0.15923100  0.53756054  0.78738544    -0.39400
O1893       O  0.33348007  0.49728447  0.73225168    -0.40100
O1894       O  0.32440219  0.55332656  0.72832060    -0.40200
C1895       C  0.51052609  0.55330642  0.61559619    -0.12500
C1896       C  0.52105010  0.58760612  0.60961796     0.04500
C1897       C  0.55452999  0.59780397  0.61926264    -0.07800
C1898       C  0.57650658  0.57377767  0.63468898    -0.08500
C1899       C  0.56522830  0.53984338  0.64191632    -0.03100
C1900       C  0.53164205  0.52978915  0.63203372     0.03800
N1901       N  0.51837583  0.49563322  0.63812702     0.66300
H1902       H  0.48461009  0.54513282  0.60921117     0.15200
H1903       H  0.60251481  0.58166691  0.64101350     0.14900
N1904       N  0.56681224  0.63221179  0.61297696     0.74000
O1905       O  0.50790912  0.48800378  0.66546393    -0.39500
O1906       O  0.50972382  0.47654221  0.61542824    -0.39400
O1907       O  0.57036474  0.65354296  0.63523905    -0.40100
O1908       O  0.57822433  0.63978049  0.58593573    -0.40200
C1909       C  0.39285152  0.56385319  0.96262432    -0.12500
C1910       C  0.37535054  0.58634859  0.94202680     0.04500
C1911       C  0.36749401  0.62069771  0.95139973    -0.07800
C1912       C  0.37726530  0.63217557  0.98095343    -0.08500
C1913       C  0.39099977  0.60781768  0.50186014    -0.03100
C1914       C  0.40321538  0.57561422  0.99233020     0.03800
N1915       N  0.43156698  0.55780053  0.50809622     0.66300
H1916       H  0.40002628  0.53776141  0.95503270     0.15200
H1917       H  0.35468778  0.64962668  0.49175084     0.14900
N1918       N  0.34948639  0.64435872  0.93106930     0.74000
O1919       O  0.42372496  0.53147480  0.52442181    -0.39500
O1920       O  0.46316288  0.56480114  0.50306376    -0.39400
O1921       O  0.31870466  0.63792040  0.92297864    -0.40100
O1922       O  0.36199194  0.67411740  0.92565047    -0.40200
C1923       C  0.41700357  0.65169272  0.71367278    -0.12500
C1924       C  0.43055544  0.62593531  0.69366540     0.04500
C1925       C  0.43285212  0.59104791  0.70464199    -0.07800
C1926       C  0.41946413  0.58228139  0.73431328    -0.08500
C1927       C  0.40336345  0.60767778  0.75309839    -0.03100
C1928       C  0.40318003  0.64287727  0.74303274     0.03800
N1929       N  0.38845685  0.67000585  0.76215047     0.66300
H1930       H  0.41511121  0.67854295  0.70579796     0.15200
H1931       H  0.42027995  0.55534131  0.74206033     0.14900
N1932       N  0.44830912  0.56414031  0.68580428     0.74000
O1933       O  0.40838483  0.68982868  0.77709493    -0.39500
O1934       O  0.35713813  0.67906906  0.75831049    -0.39400
O1935       O  0.48054110  0.55815577  0.68773879    -0.40100
O1936       O  0.42918069  0.54261701  0.67189283    -0.40200
C1937       C  0.30696254  0.57976378  0.61374997    -0.12500
C1938       C  0.31258274  0.61583448  0.61058747     0.04500
C1939       C  0.28377138  0.63872448  0.61446470    -0.07800
C1940       C  0.25109084  0.62548353  0.62275952    -0.08500
C1941       C  0.24558810  0.58963105  0.62666247    -0.03100
C1942       C  0.27386067  0.56646068  0.62102554     0.03800
N1943       N  0.26962585  0.52944871  0.62249079     0.66300
H1944       H  0.32834805  0.56157744  0.60994438     0.15200
H1945       H  0.22979584  0.64377256  0.62659164     0.14900
N1946       N  0.28714287  0.67569818  0.61197694     0.74000
O1947       O  0.28748922  0.51167180  0.64149607    -0.39500
O1948       O  0.25375445  0.51412927  0.60074891    -0.39400
O1949       O  0.29049216  0.68934040  0.58512771    -0.40100
O1950       O  0.27617494  0.69435095  0.63445077    -0.40200
C1951       C  0.35267877  0.81096578  0.64862040    -0.12500
C1952       C  0.37791019  0.83714175  0.64856505     0.04500
C1953       C  0.41216761  0.82871361  0.63878854    -0.07800
C1954       C  0.42055641  0.79443979  0.63001353    -0.08500
C1955       C  0.39520081  0.76818465  0.63002649    -0.03100
C1956       C  0.36089808  0.77694832  0.63928842     0.03800
N1957       N  0.33389097  0.75175946  0.63944196     0.66300
H1958       H  0.32612950  0.81691563  0.65579197     0.15200
H1959       H  0.44696961  0.78861485  0.62238281     0.14900
N1960       N  0.43883124  0.85445134  0.63786351     0.74000
O1961       O  0.33078845  0.73153337  0.66269495    -0.39500
O1962       O  0.30881102  0.75565863  0.62083604    -0.39400
O1963       O  0.46009934  0.85646291  0.66015042    -0.40100
O1964       O  0.44434698  0.87136809  0.61287504    -0.40200
C1965       C  0.53937954  0.92284189  0.87387918    -0.12500
C1966       C  0.51797721  0.93233713  0.89988858     0.04500
C1967       C  0.52139470  0.96621144  0.91232257    -0.07800
C1968       C  0.54365318  0.99014067  0.89766837    -0.08500
C1969       C  0.56345793  0.98119454  0.87082652    -0.03100
C1970       C  0.56195518  0.94693905  0.85939853     0.03800
N1971       N  0.58088075  0.93716623  0.83166992     0.66300
H1972       H  0.53715289  0.89719765  0.86346684     0.15200
H1973       H  0.54533502  0.01621544  0.90734995     0.14900
N1974       N  0.50208850  0.97703479  0.93953323     0.74000
O1975       O  0.60945563  0.92094005  0.83388141    -0.39500
O1976       O  0.57057630  0.94734632  0.80511253    -0.39400
O1977       O  0.51424548  0.97125257  0.96648050    -0.40100
O1978       O  0.47613245  0.99712609  0.93660312    -0.40200
C1979       C  0.41534525  0.73483179  0.86997403    -0.12500
C1980       C  0.38879242  0.75776870  0.87989420     0.04500
C1981       C  0.35377190  0.74773462  0.87594948    -0.07800
C1982       C  0.34628302  0.71506436  0.86283157    -0.08500
C1983       C  0.37305039  0.69143582  0.85458105    -0.03100
C1984       C  0.40805812  0.70195216  0.85807537     0.03800
N1985       N  0.43684627  0.67903769  0.85154971     0.66300
H1986       H  0.44244665  0.74165845  0.87275829     0.15200
H1987       H  0.31931174  0.70756432  0.86050895     0.14900
N1988       N  0.32550419  0.76964760  0.88599920     0.74000
O1989       O  0.45678901  0.68536575  0.82854097    -0.39500
O1990       O  0.44684085  0.65804826  0.87254031    -0.39400
O1991       O  0.30494245  0.78209918  0.86588473    -0.40100
O1992       O  0.31672557  0.77003981  0.91465067    -0.40200
C1993       C  0.47561211  0.75034380  0.97614158    -0.12500
C1994       C  0.47342142  0.78621060  0.98255124     0.04500
C1995       C  0.47611859  0.79581275  0.50916860    -0.07800
C1996       C  0.47742629  0.77068038  0.53327183    -0.08500
C1997       C  0.47281921  0.73510805  0.52670432    -0.03100
C1998       C  0.47040444  0.72453588  0.49508412     0.03800
N1999       N  0.47419544  0.68945928  0.99314767     0.66300
H2000       H  0.47330614  0.74129836  0.95213702     0.15200
H2001       H  0.47821659  0.77933927  0.55748716     0.14900
N2002       N  0.47638382  0.83198900  0.51718512     0.74000
O2003       O  0.44602069  0.67704117  0.98338801    -0.39500
O2004       O  0.49017666  0.66830307  0.48400138    -0.39400
O2005       O  0.44878523  0.84682779  0.52667898    -0.40100
O2006       O  0.50493482  0.84787684  0.51858847    -0.40200
C2007       C  0.26506782  0.90444276  0.86161020    -0.12500
C2008       C  0.24011860  0.91705024  0.88333525     0.04500
C2009       C  0.25013331  0.92174910  0.91495211    -0.07800
C2010       C  0.28398782  0.91253119  0.92425476    -0.08500
C2011       C  0.30859077  0.90024118  0.90226904    -0.03100
C2012       C  0.29901427  0.89647779  0.87074739     0.03800
N2013       N  0.32356059  0.88442872  0.84771137     0.66300
H2014       H  0.25842959  0.90108636  0.83712538     0.15200
H2015       H  0.29142564  0.91599194  0.94853781     0.14900
N2016       N  0.22667896  0.93641124  0.93772793     0.74000
O2017       O  0.32889656  0.85213633  0.84422451    -0.39500
O2018       O  0.33582579  0.90561962  0.82789843    -0.39400
O2019       O  0.21431711  0.91732264  0.95919675    -0.40100
O2020       O  0.22375775  0.96914323  0.93994543    -0.40200
C2021       C  0.40172476  0.86922768  0.80111500    -0.12500
C2022       C  0.42137538  0.89352269  0.81774553     0.04500
C2023       C  0.42786706  0.92655950  0.80414363    -0.07800
C2024       C  0.41337943  0.93523065  0.77503139    -0.08500
C2025       C  0.39192265  0.91165397  0.75953248    -0.03100
C2026       C  0.38666345  0.87818076  0.77242345     0.03800
N2027       N  0.36579984  0.85309489  0.75667348     0.66300
H2028       H  0.39634822  0.84385231  0.81124053     0.15200
H2029       H  0.41807250  0.96076242  0.76495538     0.14900
N2030       N  0.44909815  0.95152173  0.81963528     0.74000
O2031       O  0.37928452  0.83390070  0.73569946    -0.39500
O2032       O  0.33525874  0.84718337  0.76633960    -0.39400
O2033       O  0.48171418  0.95029258  0.81599439    -0.40100
O2034       O  0.43515390  0.97759792  0.83293697    -0.40200
C2035       C  0.40463297  0.94214757  0.52377185    -0.12500
C2036       C  0.38388215  0.91626926  0.51042874     0.04500
C2037       C  0.35340543  0.90567284  0.52657956    -0.07800
C2038       C  0.34406255  0.92112543  0.55523840    -0.08500
C2039       C  0.36534229  0.94603240  0.56918715    -0.03100
C2040       C  0.39614521  0.95635033  0.55335344     0.03800
N2041       N  0.41912532  0.98102904  0.56707639     0.66300
H2042       H  0.42807902  0.95052251  0.51167875     0.15200
H2043       H  0.32083261  0.91226767  0.56741734     0.14900
N2044       N  0.35096504  0.86390731  0.02585496     0.74000
O2045       O  0.44407527  0.97037863  0.58368896    -0.39500
O2046       O  0.41828911  0.01240932  0.55812092    -0.39400
O2047       O  0.36277537  0.83832305  0.04123832    -0.40100
O2048       O  0.32473609  0.85986954  0.00869726    -0.40200
loop_ 
_geom_bond_atom_site_label_1 
_geom_bond_atom_site_label_2 
_geom_bond_distance 
_geom_bond_site_symmetry_2 
_ccdc_geom_bond_type 
O1           C16   1.258       .  A
O1           Al9   1.882       .  S
C2           O12   1.269       .  A
C2            O3   1.267       .  A
C2          C998   1.478       .  S
O3           Al5   1.917       .  S
O4            C6   1.256       .  A
O4           Al5   1.890       .  S
Al5          O13   1.915       .  S
Al5          O15   1.925       .  S
Al5          O14   1.786       .  S
C6           O19   1.258       .  A
C6          C987   1.475       .  S
O7           C17   1.255       .  A
O7           Al9   1.909       .  S
O8           C21   1.274       .  A
O8          Al18   1.930       .  S
Al9          O22   1.917       .  S
Al9          O19   1.902       .  S
Al9          O14   1.787       .  S
O10          C17   1.257       .  A
O10         Al18   1.903       .  S
O11          C20   1.258       .  A
O11         Al18   1.917       .  S
O12         Al18   1.906       .  S
O13          C20   1.262       .  A
O14         Al18   1.791       .  S
O15          C16   1.265       .  A
C16        C2036   1.481       .  S
C17         C956   1.486       .  S
C20         C942   1.501       .  S
C21          O22   1.269       .  A
C21         C970   1.477       .  S
O23          C38   1.258       .  A
O23         Al31   1.872       .  S
C24          O34   1.274       .  A
C24          O25   1.268       .  A
C24         C900   1.479       .  S
O25         Al27   1.909       .  S
O26          C28   1.257       .  A
O26         Al27   1.892       .  S
Al27         O35   1.896       .  S
Al27         O37   1.901       .  S
Al27         O36   1.791       .  S
C28          O41   1.259       .  A
C28         C914   1.486       .  S
O29          C39   1.257       .  A
O29         Al31   1.912       .  S
O30          C43   1.275       .  A
O30         Al40   1.932       .  S
Al31         O44   1.920       .  S
Al31         O41   1.906       .  S
Al31         O36   1.779       .  S
O32          C39   1.256       .  A
O32         Al40   1.914       .  S
O33          C42   1.255       .  A
O33         Al40   1.918       .  S
O34         Al40   1.911       .  S
O35          C42   1.255       .  A
O36         Al40   1.797       .  S
O37          C38   1.259       .  A
C38         C889   1.482       .  S
C39         C931   1.488       .  S
C42         C872   1.486       .  S
C43          O44   1.270       .  A
C43         C973   1.478       .  S
O45          C60   1.263       .  A
O45         Al53   1.891       .  S
C46          O56   1.261       .  A
C46          O47   1.269       .  A
C46         C886   1.454       .  S
O47         Al49   1.934       .  S
O48          C50   1.254       .  A
O48         Al49   1.884       .  S
Al49         O57   1.922       .  S
Al49         O59   1.935       .  S
Al49         O58   1.793       .  S
C50          O63   1.255       .  A
C50         C844   1.473       .  S
O51          C61   1.262       .  A
O51         Al53   1.920       .  S
O52          C65   1.268       .  A
O52         Al62   1.905       .  S
Al53         O66   1.912       .  S
Al53         O63   1.894       .  S
Al53         O58   1.781       .  S
O54          C61   1.257       .  A
O54         Al62   1.906       .  S
O55          C64   1.254       .  A
O55         Al62   1.886       .  S
O56         Al62   1.864       .  S
O57          C64   1.259       .  A
O58         Al62   1.782       .  S
O59          C60   1.269       .  A
C60         C858   1.478       .  S
C61         C959   1.489       .  S
C64         C830   1.485       .  S
C65          O66   1.266       .  A
C65         C903   1.468       .  S
O67          C82   1.267       .  A
O67         Al75   1.906       .  S
C68          O78   1.269       .  A
C68          O69   1.271       .  A
C68         C802   1.475       .  S
O69         Al71   1.905       .  S
O70          C72   1.257       .  A
O70         Al71   1.925       .  S
Al71         O79   1.912       .  S
Al71         O81   1.935       .  S
Al71         O80   1.799       .  S
C72          O85   1.255       .  A
C72         C917   1.487       .  S
O73          C83   1.255       .  A
O73         Al75   1.893       .  S
O74          C87   1.263       .  A
O74         Al84   1.923       .  S
Al75         O88   1.868       .  S
Al75         O85   1.885       .  S
Al75         O80   1.775       .  S
O76          C83   1.258       .  A
O76         Al84   1.900       .  S
O77          C86   1.259       .  A
O77         Al84   1.905       .  S
O78         Al84   1.920       .  S
O79          C86   1.257       .  A
O80         Al84   1.790       .  S
O81          C82   1.274       .  A
C82         C861   1.476       .  S
C83         C816   1.479       .  S
C86         C774   1.496       .  S
C87          O88   1.258       .  A
C87         C788   1.489       .  S
O89         C104   1.256       .  A
O89         Al97   1.883       .  S
C90         O100   1.267       .  A
C90          O91   1.266       .  A
C90         C749   1.474       .  S
O91         Al93   1.912       .  S
O92          C94   1.255       .  A
O92         Al93   1.876       .  S
Al93        O101   1.894       .  S
Al93        O103   1.910       .  S
Al93        O102   1.786       .  S
C94         O107   1.262       .  A
C94         C721   1.480       .  S
O95         C105   1.257       .  A
O95         Al97   1.900       .  S
O96         C109   1.272   1_655  A
O96        Al106   1.926   1_655  S
Al97        O110   1.916       .  S
Al97        O107   1.918       .  S
Al97        O102   1.782       .  S
O98         C105   1.262       .  A
O98        Al106   1.925       .  S
O99         C108   1.262       .  A
O99        Al106   1.942   1_655  S
O100       Al106   1.904       .  S
O101        C108   1.256   1_455  A
O102       Al106   1.794       .  S
O103        C104   1.260       .  A
C104        C763   1.463       .  S
C105        C819   1.494       .  S
C108        C704   1.483       .  S
C109        O110   1.268       .  A
C109        C732   1.476   1_455  S
O111        C126   1.262       .  A
O111       Al119   1.902       .  S
C112        O122   1.269       .  A
C112        O113   1.259       .  A
C112        C791   1.471       .  S
O113       Al115   1.870       .  S
O114        C116   1.263       .  A
O114       Al115   1.912       .  S
Al115       O123   1.909       .  S
Al115       O125   1.922       .  S
Al115       O124   1.779       .  S
C116        O129   1.263       .  A
C116        C847   1.484       .  S
O117        C127   1.259       .  A
O117       Al119   1.905       .  S
O118        C131   1.275       .  A
O118       Al128   1.964       .  S
Al119       O132   1.883       .  S
Al119       O129   1.911       .  S
Al119       O124   1.777       .  S
O120        C127   1.257       .  A
O120       Al128   1.902       .  S
O121        C130   1.264       .  A
O121       Al128   1.926   1_655  S
O122       Al128   1.947       .  S
O123        C130   1.261   1_455  A
O124       Al128   1.787       .  S
O125        C126   1.269       .  A
C126        C805   1.478       .  S
C127        C693   1.486       .  S
C130        C676   1.490       .  S
C131        O132   1.261       .  A
C131        C735   1.484       .  S
O133        C148   1.268       .  A
O133       Al141   1.911       .  S
C134        O144   1.264       .  A
C134        O135   1.269       .  A
C134       C1015   1.468       .  S
O135       Al137   1.912       .  S
O136        C138   1.260       .  A
O136       Al137   1.918       .  S
Al137       O145   1.950   1_565  S
Al137       O147   1.943   1_565  S
Al137       O146   1.793       .  S
C138        O151   1.255       .  A
C138        C718   1.485       .  S
O139        C149   1.260       .  A
O139       Al141   1.895       .  S
O140        C153   1.260       .  A
O140       Al150   1.906       .  S
Al141       O154   1.881       .  S
Al141       O151   1.897       .  S
Al141       O146   1.778       .  S
O142        C149   1.257       .  A
O142       Al150   1.893       .  S
O143        C152   1.259   1_565  A
O143       Al150   1.895       .  S
O144       Al150   1.920       .  S
O145        C152   1.263       .  A
O146       Al150   1.785       .  S
O147        C148   1.277   1_545  A
C148        C665   1.481       .  S
C149        C928   1.481       .  S
C152        C648   1.493       .  S
C153        O154   1.257       .  A
C153       C1001   1.466       .  S
O155        C170   1.266       .  A
O155       Al163   1.885       .  S
C156        O166   1.257       .  A
C156        O157   1.267       .  A
C156        C760   1.471       .  S
O157       Al159   1.927       .  S
O158        C160   1.253       .  A
O158       Al159   1.904       .  S
Al159       O167   1.909   1_565  S
Al159       O169   1.970       .  S
Al159       O168   1.791       .  S
C160        O173   1.254       .  A
C160        C984   1.474       .  S
O161        C171   1.265       .  A
O161       Al163   1.905       .  S
O162        C175   1.261       .  A
O162       Al172   1.914       .  S
Al163       O176   1.902       .  S
Al163       O173   1.898       .  S
Al163       O168   1.783       .  S
O164        C171   1.267       .  A
O164       Al172   1.931       .  S
O165        C174   1.260   1_565  A
O165       Al172   1.897       .  S
O166       Al172   1.866       .  S
O167        C174   1.260       .  A
O168       Al172   1.785       .  S
O169        C170   1.277       .  A
C170        C662   1.491       .  S
C171        C690   1.469       .  S
C174        C634   1.486       .  S
C175        O176   1.258       .  A
C175        C746   1.479       .  S
O177        C192   1.260       .  A
O177       Al185   1.878       .  S
C178        O188   1.266       .  A
C178        O179   1.264       .  A
C178        C609   1.471       .  S
O179       Al181   1.904       .  S
O180        C182   1.255       .  A
O180       Al181   1.888       .  S
Al181       O189   1.895       .  S
Al181       O191   1.904       .  S
Al181       O190   1.790       .  S
C182        O195   1.260       .  A
C182        C595   1.476       .  S
O183        C193   1.258       .  A
O183       Al185   1.901       .  S
O184        C197   1.272       .  A
O184       Al194   1.940       .  S
Al185       O198   1.928       .  S
Al185       O195   1.918       .  S
Al185       O190   1.779       .  S
O186        C193   1.263       .  A
O186       Al194   1.914       .  S
O187        C196   1.260       .  A
O187       Al194   1.925       .  S
O188       Al194   1.900       .  S
O189        C196   1.257       .  A
O190       Al194   1.792       .  S
O191        C192   1.260       .  A
C192        C620   1.464       .  S
C193        C564   1.488       .  S
C196        C875   1.488       .  S
C197        O198   1.268       .  A
C197        C578   1.490       .  S
O199        C214   1.256       .  A
O199       Al207   1.852       .  S
C200        O210   1.268       .  A
C200        O201   1.266       .  A
C200        C522   1.477       .  S
O201       Al203   1.916       .  S
O202        C204   1.257       .  A
O202       Al203   1.900       .  S
Al203       O211   1.907       .  S
Al203       O213   1.935       .  S
Al203       O212   1.788       .  S
C204        O217   1.257       .  A
C204        C536   1.469       .  S
O205        C215   1.256       .  A
O205       Al207   1.887       .  S
O206        C219   1.273       .  A
O206       Al216   1.944       .  S
Al207       O220   1.912       .  S
Al207       O217   1.906       .  S
Al207       O212   1.774       .  S
O208        C215   1.266       .  A
O208       Al216   1.932       .  S
O209        C218   1.263       .  A
O209       Al216   1.933       .  S
O210       Al216   1.901       .  S
O211        C218   1.263       .  A
O212       Al216   1.787       .  S
O213        C214   1.265       .  A
C214        C508   1.482       .  S
C215        C550   1.488       .  S
C218        C679   1.502       .  S
C219        O220   1.264       .  A
C219        C581   1.485       .  S
O221        C236   1.263       .  A
O221       Al229   1.882       .  S
C222        O232   1.260       .  A
C222        O223   1.268       .  A
C222        C511   1.465       .  S
O223       Al225   1.936       .  S
O224        C226   1.258       .  A
O224       Al225   1.906       .  S
Al225       O233   1.922       .  S
Al225       O235   1.948       .  S
Al225       O234   1.790       .  S
C226        O239   1.258       .  A
C226        C480   1.489       .  S
O227        C237   1.265       .  A
O227       Al229   1.915       .  S
O228        C241   1.266       .  A
O228       Al238   1.916       .  S
Al229       O242   1.902       .  S
Al229       O239   1.904       .  S
Al229       O234   1.774       .  S
O230        C237   1.262       .  A
O230       Al238   1.918       .  S
O231        C240   1.258       .  A
O231       Al238   1.895       .  S
O232       Al238   1.858       .  S
O233        C240   1.262       .  A
O234       Al238   1.780       .  S
O235        C236   1.271       .  A
C236        C494   1.481       .  S
C237        C567   1.484       .  S
C240        C777   1.484   1_655  S
C241        O242   1.263       .  A
C241        C525   1.471       .  S
O243        C258   1.264       .  A
O243       Al251   1.887       .  S
C244        O254   1.262       .  A
C244        O245   1.266       .  A
C244        C452   1.459       .  S
O245       Al247   1.927       .  S
O246        C248   1.260       .  A
O246       Al247   1.912       .  S
Al247       O255   1.933       .  S
Al247       O257   1.932       .  S
Al247       O256   1.797       .  S
C248        O261   1.254       .  A
C248        C539   1.493       .  S
O249        C259   1.265       .  A
O249       Al251   1.929       .  S
O250        C263   1.266       .  A
O250       Al260   1.913       .  S
Al251       O264   1.903       .  S
Al251       O261   1.890       .  S
Al251       O256   1.781       .  S
O252        C259   1.258       .  A
O252       Al260   1.894       .  S
O253        C262   1.253       .  A
O253       Al260   1.873       .  S
O254       Al260   1.873       .  S
O255        C262   1.263       .  A
O256       Al260   1.781       .  S
O257        C258   1.268       .  A
C258        C497   1.477       .  S
C259        C466   1.484       .  S
C262        C637   1.486   1_655  S
C263        O264   1.261       .  A
C263        C438   1.471       .  S
O265        C280   1.257       .  A
O265       Al273   1.869       .  S
C266        O276   1.274       .  A
C266        O267   1.258       .  A
C266        C410   1.466       .  S
O267       Al269   1.839       .  S
O268        C270   1.262       .  A
O268       Al269   1.918       .  S
Al269       O277   1.888       .  S
Al269       O279   1.900       .  S
Al269       O278   1.785       .  S
C270        O283   1.260       .  A
C270        C382   1.482       .  S
O271        C281   1.249       .  A
O271       Al273   1.868       .  S
O272        C285   1.274       .  A
O272       Al282   1.959       .  S
Al273       O286   1.875       .  S
Al273       O283   1.905       .  S
Al273       O278   1.776       .  S
O274        C281   1.257       .  A
O274       Al282   1.906       .  S
O275        C284   1.261       .  A
O275       Al282   1.928       .  S
O276       Al282   1.942       .  S
O277        C284   1.253       .  A
O278       Al282   1.787       .  S
O279        C280   1.267       .  A
C280        C424   1.457       .  S
C281        C469   1.473       .  S
C284        C945   1.486   1_545  S
C285        O286   1.260       .  A
C285        C396   1.477       .  S
O287        C302   1.256       .  A
O287       Al295   1.856       .  S
C288        O298   1.268       .  A
C288        O289   1.263       .  A
C288        C441   1.473       .  S
O289       Al291   1.906       .  S
O290        C292   1.258       .  A
O290       Al291   1.904       .  S
Al291       O299   1.914       .  S
Al291       O301   1.934       .  S
Al291       O300   1.788       .  S
C292        O305   1.258       .  A
C292        C483   1.474       .  S
O293        C303   1.257       .  A
O293       Al295   1.896       .  S
O294        C307   1.269       .  A
O294       Al304   1.931       .  S
Al295       O308   1.918       .  S
Al295       O305   1.911       .  S
Al295       O300   1.780       .  S
O296        C303   1.265       .  A
O296       Al304   1.928       .  S
O297        C306   1.261       .  A
O297       Al304   1.917       .  S
O298       Al304   1.897       .  S
O299        C306   1.264       .  A
O300       Al304   1.785       .  S
O301        C302   1.266       .  A
C302        C455   1.479       .  S
C303        C368   1.492       .  S
C306        C707   1.501   1_545  S
C307        O308   1.266       .  A
C307        C399   1.482       .  S
O309        C324   1.263       .  A
O309       Al317   1.876       .  S
C310        O320   1.259       .  A
C310        O311   1.269       .  A
C310        C623   1.479       .  S
O311       Al313   1.934       .  S
O312        C314   1.253       .  A
O312       Al313   1.890       .  S
Al313       O321   1.908       .  S
Al313       O323   1.953       .  S
Al313       O322   1.799       .  S
C314        O327   1.254       .  A
C314        C385   1.475       .  S
O315        C325   1.264       .  A
O315       Al317   1.912       .  S
O316        C329   1.262       .  A
O316       Al326   1.901       .  S
Al317       O330   1.903       .  S
Al317       O327   1.890       .  S
Al317       O322   1.783       .  S
O318        C325   1.263       .  A
O318       Al326   1.921       .  S
O319        C328   1.256       .  A
O319       Al326   1.887       .  S
O320       Al326   1.848       .  S
O321        C328   1.258       .  A
O322       Al326   1.780       .  S
O323        C324   1.273       .  A
C324        C354   1.481       .  S
C325        C553   1.487       .  S
C328        C833   1.483       .  S
C329        O330   1.261       .  A
C329        C606   1.470       .  S
O331        C346   1.260       .  A
O331       Al339   1.877       .  S
C332        O342   1.260       .  A
C332        O333   1.271       .  A
C332        C427   1.445       .  S
O333       Al335   1.930       .  S
O334        C336   1.259       .  A
O334       Al335   1.909       .  S
Al335       O343   1.942       .  S
Al335       O345   1.944       .  S
Al335       O344   1.797       .  S
C336        O349   1.254       .  A
C336        C592   1.486       .  S
O337        C347   1.259       .  A
O337       Al339   1.916       .  S
O338        C351   1.260       .  A
O338       Al348   1.875       .  S
Al339       O352   1.904       .  S
Al339       O349   1.889       .  S
Al339       O344   1.775       .  S
O340        C347   1.259       .  A
O340       Al348   1.923       .  S
O341        C350   1.250       .  A
O341       Al348   1.871       .  S
O342       Al348   1.829       .  S
O343        C350   1.264       .  A
O344       Al348   1.786       .  S
O345        C346   1.271       .  A
C346        C357   1.478       .  S
C347        C371   1.491       .  S
C350        C651   1.503       .  S
C351        O352   1.268       .  A
C351        C413   1.450       .  S
C353        C354   1.404       .  A
C353       C1382   1.400       .  A
C353        H360   1.085       .  S
C354        C355   1.410       .  A
C355       C1380   1.406       .  A
C355        N362   1.427       .  S
C356        C357   1.405   1_556  A
C356       C1379   1.405       .  A
C356        H361   1.084       .  S
C357        C358   1.410       .  A
C358       C1377   1.402       .  A
C358        N359   1.428       .  S
N359        O363   1.262       .  A
N359        O364   1.261       .  A
N362       O1390   1.262       .  A
N362        O365   1.261       .  A
O366       N1386   1.262       .  A
C367        C368   1.404       .  A
C367        C372   1.399       .  A
C367        H374   1.084       .  S
C368        C369   1.417       .  A
C369        C370   1.405       .  A
C369        N376   1.429       .  S
C370        C371   1.404       .  A
C370        H375   1.080       .  S
C371        C372   1.413       .  A
C372        N373   1.428       .  S
N373        O377   1.262       .  A
N373        O378   1.262       .  A
N376        O380   1.262       .  A
N376        O379   1.262       .  A
C381        C382   1.407       .  A
C381        C386   1.397       .  A
C381        H388   1.084       .  S
C382        C383   1.412       .  A
C383        C384   1.400       .  A
C383        N390   1.429       .  S
C384        C385   1.404       .  A
C384        H389   1.084       .  S
C385        C386   1.408       .  A
C386        N387   1.429       .  S
N387        O391   1.261       .  A
N387        O392   1.261       .  A
N390        O394   1.262       .  A
N390        O393   1.262       .  A
C395        C396   1.400       .  A
C395        C400   1.403       .  A
C395        H402   1.085       .  S
C396        C397   1.412       .  A
C397        C398   1.409       .  A
C397        N404   1.430       .  S
C398        C399   1.405       .  A
C398        H403   1.084       .  S
C399        C400   1.412       .  A
C400        N401   1.429       .  S
N401        O405   1.262       .  A
N401        O406   1.262       .  A
N404        O408   1.262   1_545  A
N404        O407   1.261       .  A
C409        C410   1.403       .  A
C409        C414   1.401       .  A
C409        H416   1.084       .  S
C410        C411   1.414       .  A
C411       C1436   1.383       .  A
C411        N418   1.429       .  S
C412        C413   1.392   1_556  A
C412       C1435   1.381       .  A
C412        H417   1.086       .  S
C413       C1438   1.408   1_554  A
C414       C1437   1.409       .  A
C414       N1439   1.429       .  S
N415       C1438   1.431   1_554  S
N415       O1443   1.262       .  A
N415        O420   1.262       .  A
N418        O422   1.261       .  A
N418        O421   1.262       .  A
O419       N1439   1.262       .  A
C423        C424   1.405       .  A
C423        C428   1.398       .  A
C423        H430   1.084       .  S
C424        C425   1.417       .  A
C425        C426   1.378       .  A
C425        N432   1.434       .  S
C426        C427   1.394       .  A
C426        H431   1.086       .  S
C427        C428   1.404       .  A
C428        N429   1.429       .  S
N429        O433   1.262       .  A
N429        O434   1.262       .  A
N432        O436   1.262       .  A
N432        O435   1.262       .  A
C437        C442   1.400       .  A
C437       C1462   1.398       .  A
C437        H444   1.084       .  S
C438       C1461   1.398       .  A
C438       C1463   1.415       .  A
C439        C440   1.393       .  A
C439       C1462   1.416       .  A
C439       N1470   1.433   1_554  S
C440        C441   1.397       .  A
C440        H445   1.084       .  S
C441        C442   1.416       .  A
C442        N443   1.430       .  S
N443        O447   1.262       .  A
N443        O448   1.262       .  A
N446       C1463   1.431       .  S
N446        O450   1.262       .  A
N446        O449   1.262       .  A
C451        C452   1.403       .  A
C451        C456   1.405       .  A
C451        H458   1.084       .  S
C452        C453   1.403       .  A
C453        C454   1.390       .  A
C453        N460   1.434       .  S
C454        C455   1.406       .  A
C454        H459   1.084       .  S
C455        C456   1.411       .  A
C456        N457   1.427       .  S
N457        O461   1.262       .  A
N457        O462   1.261       .  A
N460        O464   1.262       .  A
N460        O463   1.263       .  A
C465        C466   1.411       .  A
C465        C470   1.396       .  A
C465        H472   1.083       .  S
C466        C467   1.409       .  A
C467        C468   1.402       .  A
C467        N474   1.428       .  S
C468        C469   1.407       .  A
C468        H473   1.083       .  S
C469        C470   1.403       .  A
C470        N471   1.430       .  S
N471        O475   1.262       .  A
N471        O476   1.262       .  A
N474        O478   1.261       .  A
N474        O477   1.262       .  A
C479        C480   1.409       .  A
C479        C484   1.400       .  A
C479        H486   1.084       .  S
C480        C481   1.415       .  A
C481        C482   1.404       .  A
C481        N488   1.429       .  S
C482        C483   1.403       .  A
C482        H487   1.084       .  S
C483        C484   1.406       .  A
C484        N485   1.430       .  S
N485        O489   1.262       .  A
N485        O490   1.262       .  A
N488        O492   1.262       .  A
N488        O491   1.262       .  A
C493        C494   1.404   1_556  A
C493       C1522   1.401       .  A
C493        H500   1.084       .  S
C494        C495   1.413       .  A
C495        C496   1.405       .  A
C495        N502   1.431       .  S
C496       C1521   1.403   1_554  A
C496        H501   1.084       .  S
C497        C498   1.411       .  A
C497       C1520   1.402       .  A
C498       C1517   1.401       .  A
C498        N499   1.429       .  S
N499        O503   1.261       .  A
N499        O504   1.262   1_655  A
N502        O506   1.262   1_655  A
N502        O505   1.262       .  A
C507        C508   1.406       .  A
C507        C512   1.385       .  A
C507        H514   1.084       .  S
C508        C509   1.416       .  A
C509        C510   1.407       .  A
C509        N516   1.429       .  S
C510        C511   1.403       .  A
C510        H515   1.084       .  S
C511        C512   1.404       .  A
C512        N513   1.430       .  S
N513        O517   1.262       .  A
N513        O518   1.261       .  A
N516        O520   1.262       .  A
N516        O519   1.262       .  A
C521        C522   1.411       .  A
C521        C526   1.405       .  A
C521        H528   1.084       .  S
C522        C523   1.408       .  A
C523       C1548   1.393       .  A
C523        N530   1.430       .  S
C524        C525   1.404   1_556  A
C524       C1547   1.393       .  A
C524        H529   1.084   1_556  S
C525       C1550   1.404   1_554  A
C526       C1549   1.405       .  A
C526        N527   1.428       .  S
N527        O531   1.262       .  A
N527       O1556   1.262       .  A
N530       O1558   1.262       .  A
N530        O533   1.262       .  A
O532       N1551   1.262   1_554  A
O534       N1554   1.262       .  A
C535        C536   1.396       .  A
C535        C540   1.399       .  A
C535        H542   1.085       .  S
C536        C537   1.406       .  A
C537        C538   1.404       .  A
C537        N544   1.429       .  S
C538        C539   1.408       .  A
C538        H543   1.083       .  S
C539        C540   1.421       .  A
C540        N541   1.429       .  S
N541        O545   1.262       .  A
N541        O546   1.261       .  A
N544        O548   1.262       .  A
N544        O547   1.262       .  A
C549        C550   1.402       .  A
C549        C554   1.397       .  A
C549        H556   1.084       .  S
C550        C551   1.418       .  A
C551        C552   1.405       .  A
C551        N558   1.430       .  S
C552        C553   1.404       .  A
C552        H557   1.084       .  S
C553        C554   1.415       .  A
C554        N555   1.429       .  S
N555        O559   1.261       .  A
N555        O560   1.262       .  A
N558        O562   1.262       .  A
N558        O561   1.262       .  A
C563        C564   1.404       .  A
C563        C568   1.396       .  A
C563        H570   1.084       .  S
C564        C565   1.415       .  A
C565        C566   1.404       .  A
C565        N572   1.428       .  S
C566        C567   1.404       .  A
C566        H571   1.084       .  S
C567        C568   1.414       .  A
C568        N569   1.430       .  S
N569        O573   1.262       .  A
N569        O574   1.262       .  A
N572        O576   1.262       .  A
N572        O575   1.261       .  A
C577        C578   1.405       .  A
C577        C582   1.413       .  A
C577        H584   1.080       .  S
C578        C579   1.409       .  A
C579        C580   1.405       .  A
C579        N586   1.427       .  S
C580        C581   1.404       .  A
C580        H585   1.084       .  S
C581        C582   1.412       .  A
C582        N583   1.429       .  S
N583        O587   1.262       .  A
N583        O588   1.262       .  A
N586        O590   1.261       .  A
N586        O589   1.262       .  A
C591        C592   1.405       .  A
C591        C596   1.404       .  A
C591        H598   1.084       .  S
C592        C593   1.415       .  A
C593        C594   1.402       .  A
C593        N600   1.428       .  S
C594        C595   1.399       .  A
C594        H599   1.083       .  S
C595        C596   1.410       .  A
C596        N597   1.428       .  S
N597        O601   1.262       .  A
N597        O602   1.261       .  A
N600        O604   1.261       .  A
N600        O603   1.262       .  A
C605        C610   1.395       .  A
C605       C1630   1.405       .  A
C605       H1636   1.082       .  S
C606       C1629   1.407       .  A
C606       C1631   1.404       .  A
C607        C608   1.399       .  A
C607       C1630   1.407       .  A
C607        N614   1.428       .  S
C608        C609   1.406       .  A
C608        H613   1.083       .  S
C609        C610   1.406       .  A
C610        N611   1.430       .  S
N611        O615   1.262       .  A
N611        O616   1.262       .  A
H612       C1629   1.084       .  S
N614        O618   1.261       .  A
N614        O617   1.262       .  A
C619        C620   1.403       .  A
C619        C624   1.403       .  A
C619        H626   1.082       .  S
C620        C621   1.401       .  A
C621        C622   1.386       .  A
C621        N628   1.426       .  S
C622        C623   1.406       .  A
C622        H627   1.084       .  S
C623        C624   1.413       .  A
C624        N625   1.428       .  S
N625        O629   1.262       .  A
N625        O630   1.261       .  A
N628        O632   1.262       .  A
N628        O631   1.262       .  A
C633        C634   1.412       .  A
C633        C638   1.413       .  A
C633        H640   1.084       .  S
C634        C635   1.406       .  A
C635        C636   1.394       .  A
C635        N642   1.428       .  S
C636        C637   1.406       .  A
C636        H641   1.085   1_455  S
C637        C638   1.408       .  A
C638        N639   1.428       .  S
N639        O643   1.262       .  A
N639        O644   1.262       .  A
N642        O646   1.261       .  A
N642        O645   1.262   1_445  A
C647        C648   1.400       .  A
C647        C652   1.394       .  A
C647        H654   1.084       .  S
C648        C649   1.413       .  A
C649        C650   1.417       .  A
C649        N656   1.427       .  S
C650        C651   1.411       .  A
C650        H655   1.083       .  S
C651        C652   1.423       .  A
C652        N653   1.431       .  S
N653        O657   1.262       .  A
N653        O658   1.262       .  A
N656        O660   1.262       .  A
N656        O659   1.262       .  A
C661        C662   1.407       .  A
C661        C666   1.410   1_565  A
C661        H668   1.084   1_565  S
C662        C663   1.416       .  A
C663        C664   1.407       .  A
C663        N670   1.437       .  S
C664        C665   1.404       .  A
C664        H669   1.084       .  S
C665        C666   1.409   1_565  A
C666        N667   1.428       .  S
N667        O671   1.262       .  A
N667        O672   1.262   1_545  A
N670        O674   1.262       .  A
N670        O673   1.263       .  A
C675        C676   1.406       .  A
C675        C680   1.402       .  A
C675        H682   1.084       .  S
C676        C677   1.407       .  A
C677        C678   1.412       .  A
C677        N684   1.428       .  S
C678        C679   1.415       .  A
C678        H683   1.083       .  S
C679        C680   1.413       .  A
C680        N681   1.430       .  S
N681        O685   1.262       .  A
N681        O686   1.262       .  A
N684        O688   1.262       .  A
N684        O687   1.262       .  A
C689        C690   1.401       .  A
C689        C694   1.404       .  A
C689        H696   1.084       .  S
C690        C691   1.404       .  A
C691        C692   1.398       .  A
C691        N698   1.427       .  S
C692        C693   1.407       .  A
C692        H697   1.084       .  S
C693        C694   1.416       .  A
C694        N695   1.429       .  S
N695        O699   1.262       .  A
N695        O700   1.261       .  A
N698        O702   1.261       .  A
N698        O701   1.261       .  A
C703        C704   1.403       .  A
C703        C708   1.402       .  A
C703        H710   1.083       .  S
C704        C705   1.405       .  A
C705        C706   1.410       .  A
C705        N712   1.429       .  S
C706        C707   1.416       .  A
C706        H711   1.083       .  S
C707        C708   1.414       .  A
C708        N709   1.428       .  S
N709        O713   1.261       .  A
N709        O714   1.262   1_565  A
N712        O716   1.262       .  A
N712        O715   1.262       .  A
C717        C718   1.404       .  A
C717        C722   1.397       .  A
C717        H724   1.084       .  S
C718        C719   1.415       .  A
C719        C720   1.404       .  A
C719        N726   1.429       .  S
C720        C721   1.403       .  A
C720        H725   1.084       .  S
C721        C722   1.413       .  A
C722        N723   1.430       .  S
N723        O727   1.262       .  A
N723        O728   1.262       .  A
N726        O730   1.262       .  A
N726        O729   1.262       .  A
C731        C732   1.402       .  A
C731       C1760   1.403       .  A
C731        H738   1.084       .  S
C732        C733   1.409       .  A
C733       C1758   1.409   1_554  A
C733        N740   1.430   1_554  S
C734        C735   1.406       .  A
C734       C1757   1.408       .  A
C734        H739   1.084       .  S
C735        C736   1.413   1_455  A
C736       C1755   1.404       .  A
C736        N737   1.429       .  S
N737       O1765   1.262   1_655  A
N737        O742   1.262       .  A
N740        O744   1.262   1_556  A
N740        O743   1.262   1_655  A
O741       N1761   1.262       .  A
C745        C746   1.408       .  A
C745        C750   1.398       .  A
C745        H752   1.084       .  S
C746        C747   1.407       .  A
C747        C748   1.399       .  A
C747        N754   1.426       .  S
C748        C749   1.406       .  A
C748        H753   1.084       .  S
C749        C750   1.408       .  A
C750        N751   1.430       .  S
N751        O755   1.262       .  A
N751        O756   1.262       .  A
N754        O758   1.261       .  A
N754        O757   1.262       .  A
C759        C760   1.400       .  A
C759       C1788   1.399       .  A
C759        H766   1.081       .  S
C760        C761   1.412       .  A
C761        C762   1.399       .  A
C761        N768   1.429       .  S
C762       C1787   1.397       .  A
C762       H1791   1.084       .  S
C763        C764   1.409       .  A
C763       C1786   1.397   1_554  A
C764       C1783   1.400   1_554  A
C764        N765   1.430       .  S
N765        O769   1.262       .  A
N765        O770   1.261       .  A
H767       C1786   1.084       .  S
N768        O772   1.262       .  A
N768        O771   1.262       .  A
C773        C774   1.415       .  A
C773        C778   1.409       .  A
C773        H780   1.083       .  S
C774        C775   1.411       .  A
C775        C776   1.399       .  A
C775        N782   1.430       .  S
C776        C777   1.406       .  A
C776        H781   1.085   1_455  S
C777        C778   1.405       .  A
C778        N779   1.428       .  S
N779        O783   1.262       .  A
N779        O784   1.262       .  A
N782        O786   1.262       .  A
N782        O785   1.262       .  A
C787        C788   1.406       .  A
C787        C792   1.390       .  A
C787        H794   1.084       .  S
C788        C789   1.417       .  A
C789        C790   1.408       .  A
C789        N796   1.428       .  S
C790        C791   1.403       .  A
C790        H795   1.084       .  S
C791        C792   1.405       .  A
C792        N793   1.429       .  S
N793        O797   1.261       .  A
N793        O798   1.261       .  A
N796        O800   1.262       .  A
N796        O799   1.262       .  A
C801        C802   1.398       .  A
C801        C806   1.395       .  A
C801        H808   1.084       .  S
C802        C803   1.414       .  A
C803       C1828   1.404       .  A
C803        N810   1.429       .  S
C804        C805   1.400       .  A
C804       C1827   1.405       .  A
C804        H809   1.084       .  S
C805       C1830   1.417       .  A
C806       C1829   1.417       .  A
C806        N807   1.430       .  S
N807        O811   1.262       .  A
N807        O812   1.261   1_554  A
N810        O814   1.262       .  A
N810        O813   1.262       .  A
C815        C816   1.403       .  A
C815        C820   1.405       .  A
C815        H822   1.084       .  S
C816        C817   1.407       .  A
C817        C818   1.401       .  A
C817        N824   1.430       .  S
C818        C819   1.409       .  A
C818        H823   1.083       .  S
C819        C820   1.418       .  A
C820        N821   1.429       .  S
N821        O825   1.262       .  A
N821        O826   1.262       .  A
N824        O828   1.262       .  A
N824        O827   1.262       .  A
C829        C830   1.407       .  A
C829        C834   1.396       .  A
C829        H836   1.058       .  S
C830        C831   1.408       .  A
C831        C832   1.414       .  A
C831        N838   1.428       .  S
C832        C833   1.413       .  A
C832        H837   1.075       .  S
C833        C834   1.405       .  A
C834        N835   1.430       .  S
N835        O839   1.262       .  A
N835        O840   1.262       .  A
N838        O842   1.261       .  A
N838        O841   1.262       .  A
C843        C844   1.405       .  A
C843        C848   1.404       .  A
C843        H850   1.084       .  S
C844        C845   1.406       .  A
C845        C846   1.393       .  A
C845        N852   1.429       .  S
C846        C847   1.407       .  A
C846        H851   1.084       .  S
C847        C848   1.413       .  A
C848        N849   1.430       .  S
N849        O853   1.262       .  A
N849        O854   1.261       .  A
N852        O856   1.262       .  A
N852        O855   1.262       .  A
C857        C858   1.402       .  A
C857        C862   1.405       .  A
C857        H864   1.084       .  S
C858        C859   1.409       .  A
C859        C860   1.404       .  A
C859        N866   1.429       .  S
C860        C861   1.404       .  A
C860        H865   1.083       .  S
C861        C862   1.411       .  A
C862        N863   1.429       .  S
N863        O867   1.261       .  A
N863        O868   1.261       .  A
N866        O870   1.262       .  A
N866        O869   1.262       .  A
C871        C872   1.402       .  A
C871        C876   1.399       .  A
C871        H878   1.084       .  S
C872        C873   1.412       .  A
C873        C874   1.409       .  A
C873        N880   1.428       .  S
C874        C875   1.407       .  A
C874        H879   1.084       .  S
C875        C876   1.416       .  A
C876        N877   1.431       .  S
N877        O881   1.262       .  A
N877        O882   1.262       .  A
N880        O884   1.262       .  A
N880        O883   1.262       .  A
C885        C886   1.403       .  A
C885        C890   1.403       .  A
C885        H892   1.051       .  S
C886        C887   1.402       .  A
C887        C888   1.391       .  A
C887        N894   1.430       .  S
C888       C1913   1.405       .  A
C888       H1917   1.074       .  S
C889       C1912   1.404   1_554  A
C889       C1914   1.416   1_554  A
C890       C1913   1.411       .  A
C890       N1915   1.430       .  S
N891       C1914   1.430   1_554  S
N891        O895   1.262       .  A
N891        O896   1.262       .  A
H893       C1912   1.084       .  S
N894        O898   1.261       .  A
N894        O897   1.262       .  A
C899        C900   1.400       .  A
C899        C904   1.395       .  A
C899        H906   1.084       .  S
C900        C901   1.419       .  A
C901        C902   1.400       .  A
C901        N908   1.428       .  S
C902        C903   1.396       .  A
C902        H907   1.084       .  S
C903        C904   1.412       .  A
C904        N905   1.430       .  S
N905        O909   1.261       .  A
N905        O910   1.262       .  A
N908        O912   1.262       .  A
N908        O911   1.261       .  A
C913        C914   1.407       .  A
C913        C918   1.406       .  A
C913        H920   1.084       .  S
C914        C915   1.408       .  A
C915        C916   1.395       .  A
C915        N922   1.422       .  S
C916        C917   1.401       .  A
C916        H921   1.084       .  S
C917        C918   1.415       .  A
C918        N919   1.429       .  S
N919        O923   1.262       .  A
N919        O924   1.262       .  A
N922        O926   1.260       .  A
N922        O925   1.262       .  A
C927        C928   1.401       .  A
C927        C932   1.397       .  A
C927        H934   1.084       .  S
C928        C929   1.411       .  A
C929        C930   1.403       .  A
C929        N936   1.428       .  S
C930        C931   1.408       .  A
C930        H935   1.084       .  S
C931        C932   1.410       .  A
C932        N933   1.422       .  S
N933        O937   1.262       .  A
N933        O938   1.262       .  A
N936        O940   1.262       .  A
N936        O939   1.262       .  A
C941        C942   1.418       .  A
C941        C946   1.411       .  A
C941        H948   1.083       .  S
C942        C943   1.412       .  A
C943        C944   1.403       .  A
C943        N950   1.429       .  S
C944        C945   1.407       .  A
C944        H949   1.085   1_565  S
C945        C946   1.403       .  A
C946        N947   1.428       .  S
N947        O951   1.261       .  A
N947        O952   1.262       .  A
N950        O954   1.262       .  A
N950        O953   1.262       .  A
C955        C956   1.402       .  A
C955        C960   1.394       .  A
C955        H962   1.084       .  S
C956        C957   1.413       .  A
C957        C958   1.407       .  A
C957        N964   1.428       .  S
C958        C959   1.407       .  A
C958        H963   1.083       .  S
C959        C960   1.418       .  A
C960        N961   1.431       .  S
N961        O965   1.262       .  A
N961        O966   1.262       .  A
N964        O968   1.262       .  A
N964        O967   1.262       .  A
C969        C970   1.403       .  A
C969       C1998   1.404       .  A
C969        H976   1.085       .  S
C970       C1995   1.409       .  A
C971        C972   1.406       .  A
C971       C1994   1.410   1_554  A
C971        N978   1.429       .  S
C972        C973   1.404       .  A
C972        H977   1.084       .  S
C973        C974   1.410       .  A
C974       C1993   1.406   1_554  A
C974       N1999   1.428   1_554  S
N975       C1998   1.429       .  S
N975        O979   1.262       .  A
N975       O2004   1.262       .  A
N978        O982   1.262       .  A
N978        O981   1.262       .  A
O980       N1999   1.262       .  A
C983        C984   1.402       .  A
C983        C988   1.397       .  A
C983        H990   1.084       .  S
C984        C985   1.408       .  A
C985        C986   1.401       .  A
C985        N992   1.427       .  S
C986        C987   1.403       .  A
C986        H991   1.080       .  S
C987        C988   1.409       .  A
C988        N989   1.427       .  S
N989        O993   1.261       .  A
N989        O994   1.262       .  A
N992        O996   1.261       .  A
N992        O995   1.261       .  A
C997        C998   1.403       .  A
C997       C1002   1.398       .  A
C997       H1004   1.084       .  S
C998        C999   1.416       .  A
C999       C1000   1.401       .  A
C999       N1006   1.429       .  S
C1000      C1001   1.398       .  A
C1000      H1005   1.084       .  S
C1001      C1002   1.408       .  A
C1002      N1003   1.430       .  S
N1003      O1007   1.262       .  A
N1003      O1008   1.262       .  A
N1006      O1010   1.262       .  A
N1006      O1009   1.262       .  A
C1011      C1012   1.406       .  A
C1011      C1016   1.405       .  A
C1011      H1018   1.084       .  S
C1012      C1040   1.484   1_554  S
C1012      C1013   1.418       .  A
C1013      C1014   1.396       .  A
C1013      N2044   1.430       .  S
C1014      C1015   1.396       .  A
C1014      H1019   1.085       .  S
C1015      C1016   1.408       .  A
C1016      N1017   1.428       .  S
N1017      O1021   1.261       .  A
N1017      O1022   1.262   1_565  A
N1020      C2037   1.429       .  S
N1020      O1024   1.261       .  A
N1020      O1023   1.262       .  A
O1025      C1040   1.257       .  A
O1025     Al1033   1.874       .  S
C1026      O1036   1.268       .  A
C1026      O1027   1.266       .  A
C1026      C2022   1.477       .  S
O1027     Al1029   1.917       .  S
O1028      C1030   1.257       .  A
O1028     Al1029   1.897       .  S
Al1029     O1037   1.918       .  S
Al1029     O1039   1.930       .  S
Al1029     O1038   1.784       .  S
C1030      O1043   1.257       .  A
C1030      C2011   1.471       .  S
O1031      C1041   1.256       .  A
O1031     Al1033   1.906       .  S
O1032      C1045   1.272       .  A
O1032     Al1042   1.932       .  S
Al1033     O1046   1.916       .  S
Al1033     O1043   1.907       .  S
Al1033     O1038   1.784       .  S
O1034      C1041   1.259       .  A
O1034     Al1042   1.899       .  S
O1035      C1044   1.258       .  A
O1035     Al1042   1.910       .  S
O1036     Al1042   1.908       .  S
O1037      C1044   1.264       .  A
O1038     Al1042   1.786       .  S
O1039      C1040   1.267       .  A
C1041      C1980   1.485       .  S
C1044      C1966   1.498       .  S
C1045      O1046   1.267       .  A
C1045      C1994   1.479       .  S
O1047      C1062   1.257       .  A
O1047     Al1055   1.869       .  S
C1048      O1058   1.273       .  A
C1048      O1049   1.266       .  A
C1048      C1924   1.477       .  S
O1049     Al1051   1.903       .  S
O1050      C1052   1.259       .  A
O1050     Al1051   1.901       .  S
Al1051     O1059   1.900       .  S
Al1051     O1061   1.891       .  S
Al1051     O1060   1.789       .  S
C1052      O1065   1.257       .  A
C1052      C1938   1.492       .  S
O1053      C1063   1.256       .  A
O1053     Al1055   1.902       .  S
O1054      C1067   1.274       .  A
O1054     Al1064   1.933       .  S
Al1055     O1068   1.916       .  S
Al1055     O1065   1.905       .  S
Al1055     O1060   1.782       .  S
O1056      C1063   1.256       .  A
O1056     Al1064   1.909       .  S
O1057      C1066   1.255       .  A
O1057     Al1064   1.914       .  S
O1058     Al1064   1.911       .  S
O1059      C1066   1.256       .  A
O1060     Al1064   1.797       .  S
O1061      C1062   1.258       .  A
C1062      C1913   1.469       .  S
C1063      C1955   1.483       .  S
C1066      C1896   1.487       .  S
C1067      O1068   1.269       .  A
C1067      C1997   1.479       .  S
O1069      C1084   1.262       .  A
O1069     Al1077   1.884       .  S
C1070      O1080   1.262       .  A
C1070      O1071   1.271       .  A
C1070      C1910   1.464       .  S
O1071     Al1073   1.946       .  S
O1072      C1074   1.253       .  A
O1072     Al1073   1.882       .  S
Al1073     O1081   1.919       .  S
Al1073     O1083   1.950       .  S
Al1073     O1082   1.791       .  S
C1074      O1087   1.255       .  A
C1074      C1868   1.473       .  S
O1075      C1085   1.262       .  A
O1075     Al1077   1.914       .  S
O1076      C1089   1.269       .  A
O1076     Al1086   1.911       .  S
Al1077     O1090   1.908       .  S
Al1077     O1087   1.895       .  S
Al1077     O1082   1.781       .  S
O1078      C1085   1.257       .  A
O1078     Al1086   1.904       .  S
O1079      C1088   1.256       .  A
O1079     Al1086   1.889       .  S
O1080     Al1086   1.868       .  S
O1081      C1088   1.259       .  A
O1082     Al1086   1.782       .  S
O1083      C1084   1.272       .  A
C1084      C1882   1.483       .  S
C1085      C1983   1.485       .  S
C1088      C1854   1.488       .  S
C1089      O1090   1.265       .  A
C1089      C1927   1.470       .  S
O1091      C1106   1.266       .  A
O1091     Al1099   1.909       .  S
C1092      O1102   1.267       .  A
C1092      O1093   1.273       .  A
C1092      C1826   1.479       .  S
O1093     Al1095   1.912       .  S
O1094      C1096   1.258       .  A
O1094     Al1095   1.927       .  S
Al1095     O1103   1.909       .  S
Al1095     O1105   1.941       .  S
Al1095     O1104   1.797       .  S
C1096      O1109   1.256       .  A
C1096      C1941   1.491       .  S
O1097      C1107   1.256       .  A
O1097     Al1099   1.894       .  S
O1098      C1111   1.263       .  A
O1098     Al1108   1.924       .  S
Al1099     O1112   1.862       .  S
Al1099     O1109   1.893       .  S
Al1099     O1104   1.776       .  S
O1100      C1107   1.259       .  A
O1100     Al1108   1.905       .  S
O1101      C1110   1.260       .  A
O1101     Al1108   1.910       .  S
O1102     Al1108   1.913       .  S
O1103      C1110   1.257       .  A
O1104     Al1108   1.793       .  S
O1105      C1106   1.274       .  A
C1106      C1885   1.481       .  S
C1107      C1840   1.491       .  S
C1110      C1798   1.496       .  S
C1111      O1112   1.258       .  A
C1111      C1812   1.487       .  S
O1113      C1128   1.256       .  A
O1113     Al1121   1.883       .  S
C1114      O1124   1.271       .  A
C1114      O1115   1.266       .  A
C1114      C1773   1.472       .  S
O1115     Al1117   1.908       .  S
O1116      C1118   1.256       .  A
O1116     Al1117   1.882       .  S
Al1117     O1125   1.891       .  S
Al1117     O1127   1.899       .  S
Al1117     O1126   1.788       .  S
C1118      O1131   1.260       .  A
C1118      C1745   1.481       .  S
O1119      C1129   1.255       .  A
O1119     Al1121   1.903       .  S
O1120      C1133   1.274   1_655  A
O1120     Al1130   1.926   1_655  S
Al1121     O1134   1.916       .  S
Al1121     O1131   1.906       .  S
Al1121     O1126   1.784       .  S
O1122      C1129   1.258       .  A
O1122     Al1130   1.921       .  S
O1123      C1132   1.259       .  A
O1123     Al1130   1.935   1_655  S
O1124     Al1130   1.911       .  S
O1125      C1132   1.255   1_455  A
O1126     Al1130   1.799       .  S
O1127      C1128   1.257       .  A
C1128      C1787   1.462       .  S
C1129      C1843   1.490       .  S
C1132      C1728   1.483       .  S
C1133      O1134   1.270       .  A
C1133      C1756   1.477   1_455  S
O1135      C1150   1.262       .  A
O1135     Al1143   1.904       .  S
C1136      O1146   1.270       .  A
C1136      O1137   1.260       .  A
C1136      C1815   1.472       .  S
O1137     Al1139   1.863       .  S
O1138      C1140   1.263       .  A
O1138     Al1139   1.917       .  S
Al1139     O1147   1.901       .  S
Al1139     O1149   1.918       .  S
Al1139     O1148   1.780       .  S
C1140      O1153   1.261       .  A
C1140      C1871   1.484       .  S
O1141      C1151   1.256       .  A
O1141     Al1143   1.897       .  S
O1142      C1155   1.275       .  A
O1142     Al1152   1.965       .  S
Al1143     O1156   1.873       .  S
Al1143     O1153   1.907       .  S
Al1143     O1148   1.780       .  S
O1144      C1151   1.256       .  A
O1144     Al1152   1.902       .  S
O1145      C1154   1.263       .  A
O1145     Al1152   1.928   1_655  S
O1146     Al1152   1.946       .  S
O1147      C1154   1.259   1_455  A
O1148     Al1152   1.792       .  S
O1149      C1150   1.268       .  A
C1150      C1829   1.478   1_556  S
C1151      C1717   1.489       .  S
C1154      C1700   1.497       .  S
C1155      O1156   1.260       .  A
C1155      C1759   1.484       .  S
O1157      C1172   1.269       .  A
O1157     Al1165   1.912       .  S
C1158      O1168   1.266       .  A
C1158      O1159   1.271       .  A
C1158      C2039   1.480       .  S
O1159     Al1161   1.917       .  S
O1160      C1162   1.257       .  A
O1160     Al1161   1.908       .  S
Al1161     O1169   1.939   1_565  S
Al1161     O1171   1.937       .  S
Al1161     O1170   1.795       .  S
C1162      O1175   1.253       .  A
C1162      C1742   1.485       .  S
O1163      C1173   1.259       .  A
O1163     Al1165   1.890       .  S
O1164      C1177   1.259       .  A
O1164     Al1174   1.906       .  S
Al1165     O1178   1.881       .  S
Al1165     O1175   1.898       .  S
Al1165     O1170   1.781       .  S
O1166      C1173   1.257       .  A
O1166     Al1174   1.889       .  S
O1167      C1176   1.259   1_565  A
O1167     Al1174   1.896       .  S
O1168     Al1174   1.922       .  S
O1169      C1176   1.260       .  A
O1170     Al1174   1.786       .  S
O1171      C1172   1.277       .  A
C1172      C1689   1.480       .  S
C1173      C1952   1.478       .  S
C1176      C1672   1.492       .  S
C1177      O1178   1.256       .  A
C1177      C2025   1.470       .  S
O1179      C1194   1.266       .  A
O1179     Al1187   1.889       .  S
C1180      O1190   1.258       .  A
C1180      O1181   1.267       .  A
C1180      C1784   1.474       .  S
O1181     Al1183   1.929       .  S
O1182      C1184   1.254       .  A
O1182     Al1183   1.906       .  S
Al1183     O1191   1.911   1_565  S
Al1183     O1193   1.964       .  S
Al1183     O1192   1.792       .  S
C1184      O1197   1.255       .  A
C1184      C2008   1.488       .  S
O1185      C1195   1.266       .  A
O1185     Al1187   1.911       .  S
O1186      C1199   1.262       .  A
O1186     Al1196   1.914       .  S
Al1187     O1200   1.904       .  S
Al1187     O1197   1.897       .  S
Al1187     O1192   1.780       .  S
O1188      C1195   1.266       .  A
O1188     Al1196   1.926       .  S
O1189      C1198   1.259   1_565  A
O1189     Al1196   1.895       .  S
O1190     Al1196   1.869       .  S
O1191      C1198   1.261       .  A
O1192     Al1196   1.786       .  S
O1193      C1194   1.276       .  A
C1194      C1686   1.485       .  S
C1195      C1714   1.474       .  S
C1198      C1658   1.486       .  S
C1199      O1200   1.259       .  A
C1199      C1770   1.480       .  S
O1201      C1216   1.261       .  A
O1201     Al1209   1.895       .  S
C1202      O1212   1.266       .  A
C1202      O1203   1.262       .  A
C1202      C1633   1.470       .  S
O1203     Al1205   1.893       .  S
O1204      C1206   1.256       .  A
O1204     Al1205   1.890       .  S
Al1205     O1213   1.892       .  S
Al1205     O1215   1.895       .  S
Al1205     O1214   1.788       .  S
C1206      O1219   1.260       .  A
C1206      C1619   1.478       .  S
O1207      C1217   1.261       .  A
O1207     Al1209   1.911       .  S
O1208      C1221   1.273       .  A
O1208     Al1218   1.944       .  S
Al1209     O1222   1.914       .  S
Al1209     O1219   1.919       .  S
Al1209     O1214   1.781       .  S
O1210      C1217   1.262       .  A
O1210     Al1218   1.907       .  S
O1211      C1220   1.262       .  A
O1211     Al1218   1.935       .  S
O1212     Al1218   1.906       .  S
O1213      C1220   1.257       .  A
O1214     Al1218   1.793       .  S
O1215      C1216   1.258       .  A
C1216      C1644   1.459       .  S
C1217      C1588   1.490       .  S
C1220      C1899   1.492       .  S
C1221      O1222   1.265       .  A
C1221      C1602   1.487       .  S
O1223      C1238   1.255       .  A
O1223     Al1231   1.844       .  S
C1224      O1234   1.267       .  A
C1224      O1225   1.265       .  A
C1224      C1546   1.478       .  S
O1225     Al1227   1.911       .  S
O1226      C1228   1.258       .  A
O1226     Al1227   1.897       .  S
Al1227     O1235   1.899       .  S
Al1227     O1237   1.935       .  S
Al1227     O1236   1.786       .  S
C1228      O1241   1.258       .  A
C1228      C1560   1.469       .  S
O1229      C1239   1.257       .  A
O1229     Al1231   1.878       .  S
O1230      C1243   1.272       .  A
O1230     Al1240   1.947       .  S
Al1231     O1244   1.910       .  S
Al1231     O1241   1.917       .  S
Al1231     O1236   1.772       .  S
O1232      C1239   1.268       .  A
O1232     Al1240   1.940       .  S
O1233      C1242   1.266       .  A
O1233     Al1240   1.944       .  S
O1234     Al1240   1.902       .  S
O1235      C1242   1.262       .  A
O1236     Al1240   1.785       .  S
O1237      C1238   1.265       .  A
C1238      C1532   1.476       .  S
C1239      C1574   1.477       .  S
C1242      C1703   1.505       .  S
C1243      O1244   1.262       .  A
C1243      C1605   1.486       .  S
O1245      C1260   1.264       .  A
O1245     Al1253   1.886       .  S
C1246      O1256   1.260       .  A
C1246      O1247   1.265       .  A
C1246      C1535   1.460       .  S
O1247     Al1249   1.926       .  S
O1248      C1250   1.258       .  A
O1248     Al1249   1.908       .  S
Al1249     O1257   1.921       .  S
Al1249     O1259   1.941       .  S
Al1249     O1258   1.790       .  S
C1250      O1263   1.257       .  A
C1250      C1504   1.487       .  S
O1251      C1261   1.264       .  A
O1251     Al1253   1.916       .  S
O1252      C1265   1.266       .  A
O1252     Al1262   1.919       .  S
Al1253     O1266   1.900       .  S
Al1253     O1263   1.897       .  S
Al1253     O1258   1.774       .  S
O1254      C1261   1.263       .  A
O1254     Al1262   1.919       .  S
O1255      C1264   1.259       .  A
O1255     Al1262   1.898       .  S
O1256     Al1262   1.857       .  S
O1257      C1264   1.263       .  A
O1258     Al1262   1.780       .  S
O1259      C1260   1.270       .  A
C1260      C1518   1.478       .  S
C1261      C1591   1.485       .  S
C1264      C1801   1.483   1_655  S
C1265      O1266   1.263       .  A
C1265      C1549   1.474       .  S
O1267      C1282   1.263       .  A
O1267     Al1275   1.890       .  S
C1268      O1278   1.261       .  A
C1268      O1269   1.266       .  A
C1268      C1476   1.456       .  S
O1269     Al1271   1.926       .  S
O1270      C1272   1.261       .  A
O1270     Al1271   1.913       .  S
Al1271     O1279   1.933       .  S
Al1271     O1281   1.934       .  S
Al1271     O1280   1.796       .  S
C1272      O1285   1.255       .  A
C1272      C1563   1.492       .  S
O1273      C1283   1.263       .  A
O1273     Al1275   1.923       .  S
O1274      C1287   1.265       .  A
O1274     Al1284   1.906       .  S
Al1275     O1288   1.900       .  S
Al1275     O1285   1.890       .  S
Al1275     O1280   1.779       .  S
O1276      C1283   1.260       .  A
O1276     Al1284   1.905       .  S
O1277      C1286   1.255       .  A
O1277     Al1284   1.881       .  S
O1278     Al1284   1.864       .  S
O1279      C1286   1.264       .  A
O1280     Al1284   1.781       .  S
O1281      C1282   1.268       .  A
C1282      C1521   1.478       .  S
C1283      C1490   1.485       .  S
C1286      C1661   1.486   1_655  S
C1287      O1288   1.261       .  A
C1287      C1462   1.467   1_556  S
O1289      C1304   1.258       .  A
O1289     Al1297   1.875       .  S
C1290      O1300   1.274       .  A
C1290      O1291   1.257       .  A
C1290      C1434   1.464       .  S
O1291     Al1293   1.833       .  S
O1292      C1294   1.262       .  A
O1292     Al1293   1.924       .  S
Al1293     O1301   1.888       .  S
Al1293     O1303   1.892       .  S
Al1293     O1302   1.784       .  S
C1294      O1307   1.261       .  A
C1294      C1406   1.485       .  S
O1295      C1305   1.250       .  A
O1295     Al1297   1.871       .  S
O1296      C1309   1.274       .  A
O1296     Al1306   1.960       .  S
Al1297     O1310   1.877       .  S
Al1297     O1307   1.907       .  S
Al1297     O1302   1.774       .  S
O1298      C1305   1.256       .  A
O1298     Al1306   1.906       .  S
O1299      C1308   1.261       .  A
O1299     Al1306   1.923       .  S
O1300     Al1306   1.940       .  S
O1301      C1308   1.253       .  A
O1302     Al1306   1.788       .  S
O1303      C1304   1.265       .  A
C1304      C1448   1.453       .  S
C1305      C1493   1.475       .  S
C1308      C1969   1.484   1_545  S
C1309      O1310   1.260       .  A
C1309      C1420   1.478       .  S
O1311      C1326   1.256       .  A
O1311     Al1319   1.853       .  S
C1312      O1322   1.269       .  A
C1312      O1313   1.263       .  A
C1312      C1465   1.477       .  S
O1313     Al1315   1.907       .  S
O1314      C1316   1.257       .  A
O1314     Al1315   1.897       .  S
Al1315     O1323   1.906       .  S
Al1315     O1325   1.929       .  S
Al1315     O1324   1.786       .  S
C1316      O1329   1.259       .  A
C1316      C1507   1.472       .  S
O1317      C1327   1.257       .  A
O1317     Al1319   1.896       .  S
O1318      C1331   1.270       .  A
O1318     Al1328   1.934       .  S
Al1319     O1332   1.918       .  S
Al1319     O1329   1.914       .  S
Al1319     O1324   1.778       .  S
O1320      C1327   1.266       .  A
O1320     Al1328   1.927       .  S
O1321      C1330   1.262       .  A
O1321     Al1328   1.921       .  S
O1322     Al1328   1.906       .  S
O1323      C1330   1.263       .  A
O1324     Al1328   1.783       .  S
O1325      C1326   1.264       .  A
C1326      C1479   1.474       .  S
C1327      C1392   1.490       .  S
C1330      C1731   1.496   1_545  S
C1331      O1332   1.266       .  A
C1331      C1423   1.483       .  S
O1333      C1348   1.262       .  A
O1333     Al1341   1.878       .  S
C1334      O1344   1.261       .  A
C1334      O1335   1.269       .  A
C1334      C1647   1.474       .  S
O1335     Al1337   1.929       .  S
O1336      C1338   1.255       .  A
O1336     Al1337   1.900       .  S
Al1337     O1345   1.919       .  S
Al1337     O1347   1.953       .  S
Al1337     O1346   1.797       .  S
C1338      O1351   1.255       .  A
C1338      C1409   1.480       .  S
O1339      C1349   1.262       .  A
O1339     Al1341   1.909       .  S
O1340      C1353   1.263       .  A
O1340     Al1350   1.903       .  S
Al1341     O1354   1.908       .  S
Al1341     O1351   1.892       .  S
Al1341     O1346   1.779       .  S
O1342      C1349   1.263       .  A
O1342     Al1350   1.929       .  S
O1343      C1352   1.256       .  A
O1343     Al1350   1.887       .  S
O1344     Al1350   1.862       .  S
O1345      C1352   1.261       .  A
O1346     Al1350   1.782       .  S
O1347      C1348   1.273       .  A
C1348      C1378   1.481       .  S
C1349      C1577   1.476       .  S
C1352      C1857   1.486       .  S
C1353      O1354   1.263       .  A
C1353      C1630   1.472   1_556  S
O1355      C1370   1.262       .  A
O1355     Al1363   1.879       .  S
C1356      O1366   1.260       .  A
C1356      O1357   1.271       .  A
C1356      C1451   1.445       .  S
O1357     Al1359   1.925       .  S
O1358      C1360   1.257       .  A
O1358     Al1359   1.912       .  S
Al1359     O1367   1.941       .  S
Al1359     O1369   1.938       .  S
Al1359     O1368   1.802       .  S
C1360      O1373   1.251       .  A
C1360      C1616   1.487       .  S
O1361      C1371   1.259       .  A
O1361     Al1363   1.918       .  S
O1362      C1375   1.261       .  A
O1362     Al1372   1.879       .  S
Al1363     O1376   1.905       .  S
Al1363     O1373   1.880       .  S
Al1363     O1368   1.779       .  S
O1364      C1371   1.255       .  A
O1364     Al1372   1.912       .  S
O1365      C1374   1.245       .  A
O1365     Al1372   1.853       .  S
O1366     Al1372   1.829       .  S
O1367      C1374   1.261       .  A
O1368     Al1372   1.789       .  S
O1369      C1370   1.271       .  A
C1370      C1381   1.474       .  S
C1371      C1395   1.492       .  S
C1374      C1675   1.501       .  S
C1375      O1376   1.268       .  A
C1375      C1437   1.454       .  S
C1377      C1378   1.403   1_554  A
C1377      H1384   1.084       .  S
C1378      C1379   1.410       .  A
C1379      N1386   1.427       .  S
C1380      C1381   1.404       .  A
C1380      H1385   1.084       .  S
C1381      C1382   1.409       .  A
C1382      N1383   1.429       .  S
N1383      O1387   1.262       .  A
N1383      O1388   1.261       .  A
N1386      O1389   1.262       .  A
C1391      C1392   1.402       .  A
C1391      C1396   1.397       .  A
C1391      H1398   1.084       .  S
C1392      C1393   1.417       .  A
C1393      C1394   1.406       .  A
C1393      N1400   1.430       .  S
C1394      C1395   1.406       .  A
C1394      H1399   1.083       .  S
C1395      C1396   1.417       .  A
C1396      N1397   1.430       .  S
N1397      O1401   1.262       .  A
N1397      O1402   1.262       .  A
N1400      O1404   1.262       .  A
N1400      O1403   1.262       .  A
C1405      C1406   1.408       .  A
C1405      C1410   1.400       .  A
C1405      H1412   1.084       .  S
C1406      C1407   1.412       .  A
C1407      C1408   1.400       .  A
C1407      N1414   1.429       .  S
C1408      C1409   1.405       .  A
C1408      H1413   1.084       .  S
C1409      C1410   1.410       .  A
C1410      N1411   1.430       .  S
N1411      O1415   1.261       .  A
N1411      O1416   1.261       .  A
N1414      O1418   1.262       .  A
N1414      O1417   1.262       .  A
C1419      C1420   1.400       .  A
C1419      C1424   1.404       .  A
C1419      H1426   1.085       .  S
C1420      C1421   1.411       .  A
C1421      C1422   1.409       .  A
C1421      N1428   1.429   1_545  S
C1422      C1423   1.405       .  A
C1422      H1427   1.084       .  S
C1423      C1424   1.413       .  A
C1424      N1425   1.430       .  S
N1425      O1429   1.262       .  A
N1425      O1430   1.262       .  A
N1428      O1432   1.262       .  A
N1428      O1431   1.261   1_565  A
C1433      C1434   1.404       .  A
C1433      C1438   1.400       .  A
C1433      H1440   1.084       .  S
C1434      C1435   1.416       .  A
C1435      N1442   1.430       .  S
C1436      C1437   1.393       .  A
C1436      H1441   1.086       .  S
N1439      O1444   1.262       .  A
N1442      O1446   1.261       .  A
N1442      O1445   1.262       .  A
C1447      C1448   1.405       .  A
C1447      C1452   1.396       .  A
C1447      H1454   1.084       .  S
C1448      C1449   1.414       .  A
C1449      C1450   1.379       .  A
C1449      N1456   1.435       .  S
C1450      C1451   1.396       .  A
C1450      H1455   1.086       .  S
C1451      C1452   1.403       .  A
C1452      N1453   1.429       .  S
N1453      O1457   1.261       .  A
N1453      O1458   1.262       .  A
N1456      O1460   1.262       .  A
N1456      O1459   1.262       .  A
C1461      C1466   1.403       .  A
C1461      H1468   1.084       .  S
C1463      C1464   1.395       .  A
C1464      C1465   1.398       .  A
C1464      H1469   1.084       .  S
C1465      C1466   1.418       .  A
C1466      N1467   1.431       .  S
N1467      O1471   1.262       .  A
N1467      O1472   1.262       .  A
N1470      O1474   1.262       .  A
N1470      O1473   1.262       .  A
C1475      C1476   1.402       .  A
C1475      C1480   1.403       .  A
C1475      H1482   1.084       .  S
C1476      C1477   1.403       .  A
C1477      C1478   1.387       .  A
C1477      N1484   1.435       .  S
C1478      C1479   1.405       .  A
C1478      H1483   1.084       .  S
C1479      C1480   1.411       .  A
C1480      N1481   1.427       .  S
N1481      O1485   1.262       .  A
N1481      O1486   1.261       .  A
N1484      O1488   1.262       .  A
N1484      O1487   1.262       .  A
C1489      C1490   1.409       .  A
C1489      C1494   1.398       .  A
C1489      H1496   1.083       .  S
C1490      C1491   1.410       .  A
C1491      C1492   1.401       .  A
C1491      N1498   1.428       .  S
C1492      C1493   1.405       .  A
C1492      H1497   1.083       .  S
C1493      C1494   1.404       .  A
C1494      N1495   1.429       .  S
N1495      O1499   1.262       .  A
N1495      O1500   1.262       .  A
N1498      O1502   1.261       .  A
N1498      O1501   1.262       .  A
C1503      C1504   1.409       .  A
C1503      C1508   1.397       .  A
C1503      H1510   1.084       .  S
C1504      C1505   1.414       .  A
C1505      C1506   1.404       .  A
C1505      N1512   1.429       .  S
C1506      C1507   1.403       .  A
C1506      H1511   1.084       .  S
C1507      C1508   1.405       .  A
C1508      N1509   1.429       .  S
N1509      O1513   1.261       .  A
N1509      O1514   1.262       .  A
N1512      O1516   1.262       .  A
N1512      O1515   1.262       .  A
C1517      C1518   1.403       .  A
C1517      H1524   1.084       .  S
C1518      C1519   1.413       .  A
C1519      C1520   1.403       .  A
C1519      N1526   1.432       .  S
C1520      H1525   1.084       .  S
C1521      C1522   1.411       .  A
C1522      N1523   1.429       .  S
N1523      O1527   1.261       .  A
N1523      O1528   1.262       .  A
N1526      O1530   1.262   1_655  A
N1526      O1529   1.262       .  A
C1531      C1532   1.405       .  A
C1531      C1536   1.381       .  A
C1531      H1538   1.084       .  S
C1532      C1533   1.415       .  A
C1533      C1534   1.405       .  A
C1533      N1540   1.429       .  S
C1534      C1535   1.403       .  A
C1534      H1539   1.084       .  S
C1535      C1536   1.402       .  A
C1536      N1537   1.431       .  S
N1537      O1541   1.262       .  A
N1537      O1542   1.262       .  A
N1540      O1544   1.262       .  A
N1540      O1543   1.262       .  A
C1545      C1546   1.411       .  A
C1545      C1550   1.403       .  A
C1545      H1552   1.084       .  S
C1546      C1547   1.408       .  A
C1547      N1554   1.429       .  S
C1548      C1549   1.405       .  A
C1548      H1553   1.084       .  S
C1550      N1551   1.428       .  S
N1551      O1555   1.262       .  A
N1554      O1557   1.262       .  A
C1559      C1560   1.395       .  A
C1559      C1564   1.400       .  A
C1559      H1566   1.085       .  S
C1560      C1561   1.406       .  A
C1561      C1562   1.404       .  A
C1561      N1568   1.428       .  S
C1562      C1563   1.408       .  A
C1562      H1567   1.083       .  S
C1563      C1564   1.422       .  A
C1564      N1565   1.430       .  S
N1565      O1569   1.262       .  A
N1565      O1570   1.261       .  A
N1568      O1572   1.262       .  A
N1568      O1571   1.262       .  A
C1573      C1574   1.399       .  A
C1573      C1578   1.400       .  A
C1573      H1580   1.084       .  S
C1574      C1575   1.415       .  A
C1575      C1576   1.402       .  A
C1575      N1582   1.430       .  S
C1576      C1577   1.401       .  A
C1576      H1581   1.084       .  S
C1577      C1578   1.412       .  A
C1578      N1579   1.428       .  S
N1579      O1583   1.262       .  A
N1579      O1584   1.262       .  A
N1582      O1586   1.262       .  A
N1582      O1585   1.262       .  A
C1587      C1588   1.405       .  A
C1587      C1592   1.395       .  A
C1587      H1594   1.084       .  S
C1588      C1589   1.415       .  A
C1589      C1590   1.407       .  A
C1589      N1596   1.428       .  S
C1590      C1591   1.406       .  A
C1590      H1595   1.084       .  S
C1591      C1592   1.413       .  A
C1592      N1593   1.430       .  S
N1593      O1597   1.261       .  A
N1593      O1598   1.262       .  A
N1596      O1600   1.262       .  A
N1596      O1599   1.261       .  A
C1601      C1602   1.403       .  A
C1601      C1606   1.409       .  A
C1601      H1608   1.078       .  S
C1602      C1603   1.412       .  A
C1603      C1604   1.409       .  A
C1603      N1610   1.429       .  S
C1604      C1605   1.406       .  A
C1604      H1609   1.083       .  S
C1605      C1606   1.411       .  A
C1606      N1607   1.428       .  S
N1607      O1611   1.261       .  A
N1607      O1612   1.262       .  A
N1610      O1614   1.261       .  A
N1610      O1613   1.262       .  A
C1615      C1616   1.405       .  A
C1615      C1620   1.405       .  A
C1615      H1622   1.084       .  S
C1616      C1617   1.416       .  A
C1617      C1618   1.402       .  A
C1617      N1624   1.429       .  S
C1618      C1619   1.399       .  A
C1618      H1623   1.083       .  S
C1619      C1620   1.411       .  A
C1620      N1621   1.429       .  S
N1621      O1625   1.262       .  A
N1621      O1626   1.262       .  A
N1624      O1628   1.262       .  A
N1624      O1627   1.262       .  A
C1629      C1634   1.396       .  A
C1631      C1632   1.396       .  A
C1631      N1638   1.428       .  S
C1632      C1633   1.407       .  A
C1632      H1637   1.083       .  S
C1633      C1634   1.407       .  A
C1634      N1635   1.430       .  S
N1635      O1639   1.262       .  A
N1635      O1640   1.262       .  A
N1638      O1642   1.261       .  A
N1638      O1641   1.262       .  A
C1643      C1644   1.400       .  A
C1643      C1648   1.397       .  A
C1643      H1650   1.083       .  S
C1644      C1645   1.404       .  A
C1645      C1646   1.396       .  A
C1645      N1652   1.434       .  S
C1646      C1647   1.406       .  A
C1646      H1651   1.084       .  S
C1647      C1648   1.409       .  A
C1648      N1649   1.427       .  S
N1649      O1653   1.262       .  A
N1649      O1654   1.261       .  A
N1652      O1656   1.262       .  A
N1652      O1655   1.262       .  A
C1657      C1658   1.411       .  A
C1657      C1662   1.413       .  A
C1657      H1664   1.084       .  S
C1658      C1659   1.407       .  A
C1659      C1660   1.396       .  A
C1659      N1666   1.428       .  S
C1660      C1661   1.406       .  A
C1660      H1665   1.085   1_455  S
C1661      C1662   1.408       .  A
C1662      N1663   1.428       .  S
N1663      O1667   1.262       .  A
N1663      O1668   1.261       .  A
N1666      O1670   1.261       .  A
N1666      O1669   1.262   1_445  A
C1671      C1672   1.398       .  A
C1671      C1676   1.392       .  A
C1671      H1678   1.084       .  S
C1672      C1673   1.416       .  A
C1673      C1674   1.416       .  A
C1673      N1680   1.428       .  S
C1674      C1675   1.409       .  A
C1674      H1679   1.083       .  S
C1675      C1676   1.424       .  A
C1676      N1677   1.431       .  S
N1677      O1681   1.262       .  A
N1677      O1682   1.262       .  A
N1680      O1684   1.262       .  A
N1680      O1683   1.262       .  A
C1685      C1686   1.404       .  A
C1685      C1690   1.406       .  A
C1685      H1692   1.084       .  S
C1686      C1687   1.413       .  A
C1687      C1688   1.409       .  A
C1687      N1694   1.435       .  S
C1688      C1689   1.404       .  A
C1688      H1693   1.084       .  S
C1689      C1690   1.410       .  A
C1690      N1691   1.429       .  S
N1691      O1695   1.261   1_565  A
N1691      O1696   1.262       .  A
N1694      O1698   1.262       .  A
N1694      O1697   1.263   1_565  A
C1699      C1700   1.407       .  A
C1699      C1704   1.401       .  A
C1699      H1706   1.084       .  S
C1700      C1701   1.410       .  A
C1701      C1702   1.414       .  A
C1701      N1708   1.428       .  S
C1702      C1703   1.415       .  A
C1702      H1707   1.083       .  S
C1703      C1704   1.416       .  A
C1704      N1705   1.430       .  S
N1705      O1709   1.262       .  A
N1705      O1710   1.262       .  A
N1708      O1712   1.262       .  A
N1708      O1711   1.262       .  A
C1713      C1714   1.403       .  A
C1713      C1718   1.401       .  A
C1713      H1720   1.084       .  S
C1714      C1715   1.406       .  A
C1715      C1716   1.402       .  A
C1715      N1722   1.430       .  S
C1716      C1717   1.410       .  A
C1716      H1721   1.084       .  S
C1717      C1718   1.414       .  A
C1718      N1719   1.429       .  S
N1719      O1723   1.262       .  A
N1719      O1724   1.262       .  A
N1722      O1726   1.262       .  A
N1722      O1725   1.262       .  A
C1727      C1728   1.403       .  A
C1727      C1732   1.400       .  A
C1727      H1734   1.084       .  S
C1728      C1729   1.406       .  A
C1729      C1730   1.409       .  A
C1729      N1736   1.428       .  S
C1730      C1731   1.413       .  A
C1730      H1735   1.083       .  S
C1731      C1732   1.415       .  A
C1732      N1733   1.428   1_565  S
N1733      O1737   1.261       .  A
N1733      O1738   1.262       .  A
N1736      O1740   1.262       .  A
N1736      O1739   1.262       .  A
C1741      C1742   1.405       .  A
C1741      C1746   1.397       .  A
C1741      H1748   1.084       .  S
C1742      C1743   1.414       .  A
C1743      C1744   1.403       .  A
C1743      N1750   1.429       .  S
C1744      C1745   1.404       .  A
C1744      H1749   1.084       .  S
C1745      C1746   1.412       .  A
C1746      N1747   1.430       .  S
N1747      O1751   1.262       .  A
N1747      O1752   1.262       .  A
N1750      O1754   1.262       .  A
N1750      O1753   1.262       .  A
C1755      C1756   1.402       .  A
C1755      H1762   1.084       .  S
C1756      C1757   1.410   1_655  A
C1757      N1764   1.432       .  S
C1758      C1759   1.406   1_655  A
C1758      H1763   1.084       .  S
C1759      C1760   1.414   1_456  A
C1760      N1761   1.430   1_655  S
N1761      O1766   1.262   1_455  A
N1764      O1768   1.262   1_455  A
N1764      O1767   1.262       .  A
C1769      C1770   1.409       .  A
C1769      C1774   1.398       .  A
C1769      H1776   1.084       .  S
C1770      C1771   1.407       .  A
C1771      C1772   1.400       .  A
C1771      N1778   1.427       .  S
C1772      C1773   1.406       .  A
C1772      H1777   1.084       .  S
C1773      C1774   1.406       .  A
C1774      N1775   1.429       .  S
N1775      O1779   1.262       .  A
N1775      O1780   1.262       .  A
N1778      O1782   1.261       .  A
N1778      O1781   1.262       .  A
C1783      C1784   1.402       .  A
C1783      H1790   1.083       .  S
C1784      C1785   1.414       .  A
C1785      C1786   1.399       .  A
C1785      N1792   1.430       .  S
C1787      C1788   1.408       .  A
C1788      N1789   1.430       .  S
N1789      O1793   1.262       .  A
N1789      O1794   1.262       .  A
N1792      O1796   1.262       .  A
N1792      O1795   1.262       .  A
C1797      C1798   1.416       .  A
C1797      C1802   1.409       .  A
C1797      H1804   1.083       .  S
C1798      C1799   1.410       .  A
C1799      C1800   1.401       .  A
C1799      N1806   1.430       .  S
C1800      C1801   1.407       .  A
C1800      H1805   1.084   1_455  S
C1801      C1802   1.405       .  A
C1802      N1803   1.429       .  S
N1803      O1807   1.262       .  A
N1803      O1808   1.262       .  A
N1806      O1810   1.262       .  A
N1806      O1809   1.262       .  A
C1811      C1812   1.404       .  A
C1811      C1816   1.387       .  A
C1811      H1818   1.083       .  S
C1812      C1813   1.417       .  A
C1813      C1814   1.409       .  A
C1813      N1820   1.428       .  S
C1814      C1815   1.404       .  A
C1814      H1819   1.084       .  S
C1815      C1816   1.406       .  A
C1816      N1817   1.429       .  S
N1817      O1821   1.262       .  A
N1817      O1822   1.261       .  A
N1820      O1824   1.262       .  A
N1820      O1823   1.262       .  A
C1825      C1826   1.396       .  A
C1825      C1830   1.395       .  A
C1825      H1832   1.084       .  S
C1826      C1827   1.417       .  A
C1827      N1834   1.429       .  S
C1828      C1829   1.401       .  A
C1828      H1833   1.084       .  S
C1830      N1831   1.430       .  S
N1831      O1835   1.262       .  A
N1831      O1836   1.261       .  A
N1834      O1838   1.262       .  A
N1834      O1837   1.262       .  A
C1839      C1840   1.407       .  A
C1839      C1844   1.403       .  A
C1839      H1846   1.084       .  S
C1840      C1841   1.413       .  A
C1841      C1842   1.403       .  A
C1841      N1848   1.429       .  S
C1842      C1843   1.408       .  A
C1842      H1847   1.084       .  S
C1843      C1844   1.413       .  A
C1844      N1845   1.429       .  S
N1845      O1849   1.262       .  A
N1845      O1850   1.262       .  A
N1848      O1852   1.262       .  A
N1848      O1851   1.262       .  A
C1853      C1854   1.405       .  A
C1853      C1858   1.394       .  A
C1853      H1860   1.084       .  S
C1854      C1855   1.410       .  A
C1855      C1856   1.414       .  A
C1855      N1862   1.427       .  S
C1856      C1857   1.411       .  A
C1856      H1861   1.083       .  S
C1857      C1858   1.409       .  A
C1858      N1859   1.429       .  S
N1859      O1863   1.262       .  A
N1859      O1864   1.261       .  A
N1862      O1866   1.262       .  A
N1862      O1865   1.262       .  A
C1867      C1868   1.405       .  A
C1867      C1872   1.405       .  A
C1867      H1874   1.084       .  S
C1868      C1869   1.407       .  A
C1869      C1870   1.393       .  A
C1869      N1876   1.430       .  S
C1870      C1871   1.406       .  A
C1870      H1875   1.084       .  S
C1871      C1872   1.415       .  A
C1872      N1873   1.431       .  S
N1873      O1877   1.262       .  A
N1873      O1878   1.262       .  A
N1876      O1880   1.262       .  A
N1876      O1879   1.262       .  A
C1881      C1882   1.404       .  A
C1881      C1886   1.409       .  A
C1881      H1888   1.084       .  S
C1882      C1883   1.411       .  A
C1883      C1884   1.404       .  A
C1883      N1890   1.430       .  S
C1884      C1885   1.403       .  A
C1884      H1889   1.082       .  S
C1885      C1886   1.412       .  A
C1886      N1887   1.429       .  S
N1887      O1891   1.262       .  A
N1887      O1892   1.261       .  A
N1890      O1894   1.262       .  A
N1890      O1893   1.262       .  A
C1895      C1896   1.401       .  A
C1895      C1900   1.399       .  A
C1895      H1902   1.084       .  S
C1896      C1897   1.413       .  A
C1897      C1898   1.410       .  A
C1897      N1904   1.429       .  S
C1898      C1899   1.407       .  A
C1898      H1903   1.084       .  S
C1899      C1900   1.418       .  A
C1900      N1901   1.432       .  S
N1901      O1905   1.262       .  A
N1901      O1906   1.262       .  A
N1904      O1908   1.262       .  A
N1904      O1907   1.262       .  A
C1909      C1910   1.402       .  A
C1909      C1914   1.406       .  A
C1909      H1916   1.084       .  S
C1910      C1911   1.406       .  A
C1911      C1912   1.390       .  A
C1911      N1918   1.432       .  S
N1915      O1919   1.261       .  A
N1915      O1920   1.262       .  A
N1918      O1922   1.262       .  A
N1918      O1921   1.262       .  A
C1923      C1924   1.398       .  A
C1923      C1928   1.395       .  A
C1923      H1930   1.084       .  S
C1924      C1925   1.418       .  A
C1925      C1926   1.400       .  A
C1925      N1932   1.429       .  S
C1926      C1927   1.397       .  A
C1926      H1931   1.084       .  S
C1927      C1928   1.415       .  A
C1928      N1929   1.430       .  S
N1929      O1933   1.261       .  A
N1929      O1934   1.262       .  A
N1932      O1936   1.262       .  A
N1932      O1935   1.261       .  A
C1937      C1938   1.407       .  A
C1937      C1942   1.406       .  A
C1937      H1944   1.084       .  S
C1938      C1939   1.415       .  A
C1939      C1940   1.400       .  A
C1939      N1946   1.428       .  S
C1940      C1941   1.402       .  A
C1940      H1945   1.084       .  S
C1941      C1942   1.416       .  A
C1942      N1943   1.431       .  S
N1943      O1947   1.262       .  A
N1943      O1948   1.262       .  A
N1946      O1950   1.262       .  A
N1946      O1949   1.262       .  A
C1951      C1952   1.401       .  A
C1951      C1956   1.396       .  A
C1951      H1958   1.084       .  S
C1952      C1953   1.411       .  A
C1953      C1954   1.400       .  A
C1953      N1960   1.429       .  S
C1954      C1955   1.407       .  A
C1954      H1959   1.084       .  S
C1955      C1956   1.410       .  A
C1956      N1957   1.424       .  S
N1957      O1961   1.262       .  A
N1957      O1962   1.262       .  A
N1960      O1964   1.262       .  A
N1960      O1963   1.262       .  A
C1965      C1966   1.418       .  A
C1965      C1970   1.410       .  A
C1965      H1972   1.083       .  S
C1966      C1967   1.411       .  A
C1967      C1968   1.401       .  A
C1967      N1974   1.429       .  S
C1968      C1969   1.407       .  A
C1968      H1973   1.084   1_565  S
C1969      C1970   1.403       .  A
C1970      N1971   1.428       .  S
N1971      O1975   1.261       .  A
N1971      O1976   1.262       .  A
N1974      O1978   1.262       .  A
N1974      O1977   1.262       .  A
C1979      C1980   1.403       .  A
C1979      C1984   1.391       .  A
C1979      H1986   1.084       .  S
C1980      C1981   1.415       .  A
C1981      C1982   1.405       .  A
C1981      N1988   1.429       .  S
C1982      C1983   1.406       .  A
C1982      H1987   1.084       .  S
C1983      C1984   1.417       .  A
C1984      N1985   1.431       .  S
N1985      O1989   1.262       .  A
N1985      O1990   1.262       .  A
N1988      O1992   1.262       .  A
N1988      O1991   1.262       .  A
C1993      C1994   1.404       .  A
C1993      H2000   1.084       .  S
C1995      C1996   1.407       .  A
C1995      N2002   1.429       .  S
C1996      C1997   1.405       .  A
C1996      H2001   1.084       .  S
C1997      C1998   1.410       .  A
N1999      O2003   1.261       .  A
N2002      O2006   1.262       .  A
N2002      O2005   1.262       .  A
C2007      C2008   1.408       .  A
C2007      C2012   1.396       .  A
C2007      H2014   1.084       .  S
C2008      C2009   1.416       .  A
C2009      C2010   1.406       .  A
C2009      N2016   1.429       .  S
C2010      C2011   1.402       .  A
C2010      H2015   1.084       .  S
C2011      C2012   1.403       .  A
C2012      N2013   1.428       .  S
N2013      O2017   1.262       .  A
N2013      O2018   1.261       .  A
N2016      O2020   1.262       .  A
N2016      O2019   1.262       .  A
C2021      C2022   1.401       .  A
C2021      C2026   1.398       .  A
C2021      H2028   1.084       .  S
C2022      C2023   1.415       .  A
C2023      C2024   1.402       .  A
C2023      N2030   1.429       .  S
C2024      C2025   1.399       .  A
C2024      H2029   1.084       .  S
C2025      C2026   1.410       .  A
C2026      N2027   1.430       .  S
N2027      O2031   1.262       .  A
N2027      O2032   1.262       .  A
N2030      O2034   1.262       .  A
N2030      O2033   1.262       .  A
C2035      C2036   1.403       .  A
C2035      C2040   1.407       .  A
C2035      H2042   1.084       .  S
C2036      C2037   1.414       .  A
C2037      C2038   1.399       .  A
C2038      C2039   1.399       .  A
C2038      H2043   1.084       .  S
C2039      C2040   1.415       .  A
C2040      N2041   1.429       .  S
N2041      O2045   1.262       .  A
N2041      O2046   1.262   1_565  A
N2044      O2048   1.262       .  A
N2044      O2047   1.262       .  A
