geometry optimzed in LAMMPS
_audit_creation_date              2020-12-01 
_audit_creation_method            'lammps2cif' 
_symmetry_space_group_name_H-M    'P1' 
_symmetry_Int_Tables_number       1 
_symmetry_cell_setting            triclinic 
loop_ 
_symmetry_equiv_pos_as_xyz 
  x,y,z 
_cell_length_a                    33.42031653 
_cell_length_b                    33.23674414499366 
_cell_length_c                    58.44491929367765 
_cell_angle_alpha                 89.7388284028217 
_cell_angle_beta                  90.34090093947026 
_cell_angle_gamma                 89.95431611547082 
loop_ 
_atom_site_label 
_atom_site_type_symbol 
_atom_site_fract_x 
_atom_site_fract_y 
_atom_site_fract_z 
_atom_site_charge 
O1          O  0.08229295  0.84386083  0.53140477    -0.80400
O2          O  0.16054845  0.00844688  0.57640155    -0.65000
O3          O  0.12370344  0.90129665  0.55853043    -1.11700
C4          C  0.01246493  0.93966619  0.60358729     1.06500
O5          O  0.14584414  0.99178025  0.61196918    -0.78300
O6          O  0.10494276  0.92932299  0.62543379    -0.65800
Ni7        Ni  0.12355725  0.88494026  0.52732246     1.34900
C8          C  0.10523905  0.89351598  0.61825983     0.85300
O9          O  0.19126395  0.94847626  0.55011017    -0.78800
O10         O  0.16594582  0.92135614  0.51840566    -0.89100
C11         C  0.16399152  0.01446161  0.59813456     0.84800
O12         O  0.08473051  0.92489983  0.52205406    -0.67300
O13         O  0.03487478  0.96620319  0.61263852    -0.86600
C14         C  0.08854251  0.96271741  0.52451610     0.85700
C15         C  0.19457187  0.93755612  0.52944194     1.07200
H16         H  0.07532486  0.97934724  0.57175315     0.39000
O17         O  0.09165694  0.96024979  0.58004331    -1.09200
O18         O  0.09266480  0.88279895  0.59876067    -0.65900
Ni19       Ni  0.07186425  0.90831645  0.57222959     1.26300
O20         O  0.11540415  0.97848449  0.53781942    -0.66100
O21         O  0.02239182  0.91714669  0.58701059    -0.78400
C22         C  0.05591485  0.83417249  0.54614516     0.85100
O23         O  0.05109042  0.85578904  0.56387526    -0.65600
Ni24       Ni  0.09042681  0.97846669  0.61089814     1.27400
Ni25       Ni  0.14174335  0.95533939  0.56545045     1.26100
H26         H  0.13978310  0.88232693  0.56715529     0.39600
O27         O  0.43972894  0.17419473  0.72443708    -0.80400
O28         O  0.26767656  0.12088850  0.67709154    -0.65000
O29         O  0.37457551  0.14757364  0.69748965    -1.11700
C30         C  0.35302717  0.27010676  0.66107903     1.06500
O31         O  0.27788772  0.14817396  0.64236866    -0.78300
O32         O  0.35441804  0.16647818  0.63688553    -0.65800
Ni33       Ni  0.39281809  0.13890789  0.72815374     1.34900
C34         C  0.38989752  0.17051414  0.64416516     0.85300
O35         O  0.32332735  0.08194944  0.70313646    -0.78800
O36         O  0.35147926  0.10084270  0.73582621    -0.89100
C37         C  0.26071365  0.12262145  0.65530631     0.84800
O38         O  0.35788198  0.18144598  0.73586824    -0.67300
O39         O  0.33806853  0.24748231  0.64555505    -0.86600
C40         C  0.32038530  0.18448138  0.73159934     0.85700
C41         C  0.33242620  0.07518336  0.72396735     1.07200
H42         H  0.29775075  0.20306844  0.68528773     0.39000
O43         O  0.31808832  0.18774873  0.67749940    -1.09200
O44         O  0.39820110  0.19159595  0.66157528    -0.65900
Ni45       Ni  0.36880463  0.20330409  0.68900901     1.26300
O46         O  0.30142756  0.16002554  0.71797206    -0.66100
O47         O  0.36024313  0.25739126  0.68099107    -0.78400
C48         C  0.44652728  0.20561856  0.71238905     0.85100
O49         O  0.41962622  0.22048494  0.69973878    -0.65600
Ni50       Ni  0.30885577  0.19665426  0.64570116     1.27400
Ni51       Ni  0.32059409  0.13460117  0.68951270     1.26100
H52         H  0.39078804  0.13239071  0.68719574     0.39600
O53         O  0.40606737  0.49176544  0.61049333    -0.80400
O54         O  0.46642892  0.34156578  0.56485289    -0.65000
O55         O  0.44718894  0.45258455  0.57535918    -1.11700
C56         C  0.33598796  0.43694069  0.52890854     1.06500
O57         O  0.44932772  0.34045650  0.52815646    -0.78300
O58         O  0.44367165  0.42136199  0.51725287    -0.65800
Ni59       Ni  0.45968105  0.47476010  0.60440894     1.34900
C60         C  0.44173683  0.45917951  0.52038548     0.85300
O61         O  0.50728705  0.39753639  0.58577734    -0.78800
O62         O  0.51438530  0.45908394  0.60038401    -0.89100
C63         C  0.46730814  0.32458005  0.54547148     0.84800
O64         O  0.44822389  0.42849987  0.62276738    -0.67300
O65         O  0.36124037  0.41653739  0.51730360    -0.86600
C66         C  0.42910080  0.39718810  0.61699610     0.85700
C67         C  0.52844724  0.42487163  0.59490299     1.07200
H68         H  0.38801403  0.38028623  0.56345785     0.39000
O69         O  0.40654051  0.39758938  0.55546613    -1.09200
O70         O  0.41747011  0.47536899  0.53486314    -0.65900
Ni71       Ni  0.39428519  0.45250442  0.56315917     1.26300
O72         O  0.42953934  0.38268444  0.59706734    -0.66100
O73         O  0.34287276  0.44966532  0.54909012    -0.78400
C74         C  0.38187610  0.51174682  0.59810456     0.85100
O75         O  0.38022381  0.50570306  0.57620282    -0.65600
Ni76       Ni  0.40601456  0.38092589  0.52451252     1.27400
Ni77       Ni  0.45726290  0.39730454  0.57030459     1.26100
H78         H  0.46464541  0.46667355  0.56503284     0.39600
O79         O  0.25344247  0.63436113  0.64335475    -0.80400
O80         O  0.10370133  0.68566877  0.69250484    -0.65000
O81         O  0.21389108  0.67646981  0.67780474    -1.11700
C82         C  0.21522077  0.57446088  0.73251080     1.06500
O83         O  0.11277967  0.68335739  0.72989633    -0.78300
O84         O  0.19285571  0.68163370  0.73785836    -0.65800
Ni85       Ni  0.23086791  0.68681429  0.64742675     1.34900
C86         C  0.22939976  0.68328786  0.73216688     0.85300
O87         O  0.15164174  0.72835173  0.66761964    -0.78800
O88         O  0.20834893  0.74003339  0.64872988    -0.89100
C89         C  0.09186790  0.69376856  0.71247201     0.84800
O90         O  0.18461329  0.66774685  0.63206916    -0.67300
O91         O  0.19089301  0.59889802  0.74197345    -0.86600
C92         C  0.15417301  0.64910632  0.63932061     0.85700
C93         C  0.17350868  0.75040033  0.65529603     1.07200
H94         H  0.15085761  0.61300752  0.69689322     0.39000
O95         O  0.16693390  0.63483491  0.70278046    -1.09200
O96         O  0.24601971  0.65849823  0.71819093    -0.65900
Ni97       Ni  0.22166612  0.62649642  0.69342716     1.26300
O98         O  0.14346341  0.64838840  0.66007071    -0.66100
O99         O  0.22724737  0.57893311  0.71187011    -0.78400
C100        C  0.27538688  0.61230947  0.65601447     0.85100
O101        O  0.27338699  0.61461714  0.67817383    -0.65600
Ni102      Ni  0.15377343  0.64115537  0.73407927     1.27400
Ni103      Ni  0.15896788  0.68149184  0.68499123     1.26100
H104        H  0.22718526  0.69738630  0.68633791     0.39600
O105        O  0.63590606  0.00370365  0.60790031    -0.80400
O106        O  0.55176510  0.14563825  0.55477032    -0.65000
O107        O  0.59164395  0.04480592  0.57524545    -1.11700
C108        C  0.69495957  0.06100019  0.52243223     1.06500
O109        O  0.59144896  0.16566568  0.52700793    -0.78300
O110        O  0.58584319  0.08244037  0.51630531    -0.65800
Ni111      Ni  0.59058113  0.03781591  0.60749997     1.34900
C112        C  0.58583818  0.04429943  0.51963954     0.85300
O113        O  0.52148846  0.08632760  0.57716616    -0.78800
O114        O  0.54425348  0.07124084  0.61147121    -0.89100
C115        C  0.56252027  0.17238084  0.54075910     0.84800
O116        O  0.62565175  0.08150489  0.61161328    -0.67300
O117        O  0.66701804  0.07988307  0.51198295    -0.86600
C118        C  0.61800848  0.11732042  0.60576741     0.85700
C119        C  0.51646121  0.08411257  0.59844292     1.07200
H120        H  0.64261060  0.11837655  0.56145167     0.39000
O121        O  0.62574361  0.10140168  0.55235813    -1.09200
O122        O  0.61185480  0.02619951  0.53287888    -0.65900
Ni123      Ni  0.64167128  0.04745477  0.55989687     1.26300
O124        O  0.59133150  0.12590803  0.59092235    -0.66100
O125        O  0.69116226  0.05088097  0.54333932    -0.78400
C126        C  0.65982519  0.98717239  0.59415411     0.85100
O127        O  0.65948654  0.99489236  0.57235638    -0.65600
Ni128      Ni  0.62791041  0.11966252  0.52153651     1.27400
Ni129      Ni  0.57271742  0.09533468  0.56474452     1.26100
H130        H  0.57485856  0.02420500  0.56882195     0.39600
O131        O  0.77267940  0.86145020  0.64211697    -0.80400
O132        O  0.92071966  0.78338006  0.69442306    -0.65000
O133        O  0.81754477  0.82009401  0.67466124    -1.11700
C134        C  0.83831017  0.92610532  0.72524246     1.06500
O135        O  0.93139693  0.81447332  0.72727757    -0.78300
O136        O  0.84939434  0.81558230  0.73455141    -0.65800
Ni137      Ni  0.80916640  0.81811919  0.64222269     1.34900
C138        C  0.81240204  0.81639851  0.72911701     0.85300
O139        O  0.86213901  0.75158533  0.67164396    -0.78800
O140        O  0.84433187  0.77345484  0.63718442    -0.89100
C141        C  0.94157290  0.78841758  0.71234524     0.84800
O142        O  0.85036825  0.85591945  0.63815854    -0.67300
O143        O  0.85050302  0.89648171  0.73717032    -0.86600
C144        C  0.88642451  0.85130084  0.64419759     0.85700
C145        C  0.85882038  0.74690691  0.65041127     1.07200
H146        H  0.89237538  0.87171266  0.69015843     0.39000
O147        O  0.87404171  0.85454223  0.69816939    -1.09200
O148        O  0.79677511  0.84393366  0.71593908    -0.65900
Ni149      Ni  0.82099018  0.87153628  0.68921494     1.26300
O150        O  0.89704525  0.82379343  0.65825325    -0.66100
O151        O  0.82670324  0.92211004  0.70463204    -0.78400
C152        C  0.75820659  0.88766207  0.65526463     0.85100
O153        O  0.76932267  0.89090643  0.67644641    -0.65600
Ni154      Ni  0.88871054  0.85514006  0.72991379     1.27400
Ni155      Ni  0.86920687  0.80244827  0.68472560     1.26100
H156        H  0.79727233  0.80347711  0.68166323     0.39600
O157        O  0.93416515  0.67307339  0.52420232    -0.80400
O158        O  0.87703839  0.49952550  0.57012754    -0.65000
O159        O  0.90631578  0.60847335  0.55147929    -1.11700
C160        C  0.02758065  0.58346168  0.58795997     1.06500
O161        O  0.91015834  0.50245399  0.60336601    -0.78300
O162        O  0.92510964  0.57768944  0.61142264    -0.65800
Ni163      Ni  0.89814185  0.62671084  0.52057694     1.34900
C164        C  0.92948197  0.61410029  0.60600444     0.85300
O165        O  0.83989647  0.55876463  0.54556370    -0.78800
O166        O  0.85934664  0.58581417  0.51268064    -0.89100
C167        C  0.88207741  0.48833579  0.59125223     0.84800
O168        O  0.93988262  0.59107857  0.51266371    -0.67300
O169        O  0.00492377  0.56597710  0.60230384    -0.86600
C170        C  0.94140368  0.55314341  0.51634839     0.85700
C171        C  0.83311262  0.56828776  0.52478372     1.07200
H172        H  0.96134487  0.52989033  0.56056210     0.39000
O173        O  0.94640230  0.54911199  0.56945045    -1.09200
O174        O  0.94996324  0.62594994  0.58905418    -0.65900
Ni175      Ni  0.96162825  0.60213459  0.56010443     1.26300
O176        O  0.91601206  0.53438749  0.52939323    -0.66100
O177        O  0.01575533  0.59350161  0.56821794    -0.78400
C178        C  0.96370374  0.68124016  0.53735224     0.85100
O179        O  0.97689115  0.65589288  0.55179504    -0.65600
Ni180      Ni  0.95647356  0.53499951  0.60065384     1.27400
Ni181      Ni  0.89257096  0.55346609  0.55851043     1.26100
H182        H  0.89241035  0.62632294  0.56173847     0.39600
O183        O  0.61495438  0.31477167  0.72567017    -0.80400
O184        O  0.77507252  0.39105629  0.67477167    -0.65000
O185        O  0.67002473  0.35992697  0.69818512    -1.11700
C186        C  0.69679556  0.24625899  0.65106907     1.06500
O187        O  0.75065438  0.37569703  0.64061218    -0.78300
O188        O  0.69036485  0.33034540  0.62795444    -0.65800
Ni189      Ni  0.65478833  0.35816342  0.72941164     1.34900
C190        C  0.65875758  0.34541959  0.63613957     0.85300
O191        O  0.72325730  0.42387790  0.70638230    -0.78800
O192        O  0.68925835  0.40278406  0.73713937    -0.89100
C193        C  0.77558365  0.39498974  0.65263947     0.84800
O194        O  0.69611337  0.32084480  0.73532407    -0.67300
O195        O  0.72902373  0.26349319  0.64494762    -0.86600
C196        C  0.73278341  0.31965250  0.72953810     0.85700
C197        C  0.71053303  0.42891048  0.72672734     1.07200
H198        H  0.73985350  0.30557859  0.68240300     0.39000
O199        O  0.72290575  0.32430228  0.67418784    -1.09200
O200        O  0.64836126  0.34059250  0.65672352    -0.65900
Ni201      Ni  0.66990638  0.31047099  0.68154884     1.26300
O202        O  0.74869194  0.34492311  0.71525454    -0.66100
O203        O  0.67086794  0.26220332  0.66407779    -0.78400
C204        C  0.59957921  0.29650676  0.70847460     0.85100
O205        O  0.61656024  0.29706262  0.68918558    -0.65600
Ni206      Ni  0.73982593  0.31970678  0.64351274     1.27400
Ni207      Ni  0.72378524  0.37463258  0.68937301     1.26100
H208        H  0.65167277  0.37865802  0.69111634     0.39600
O209        O  0.93742447  0.68903541  0.21970447    -0.80400
O210        O  0.76840352  0.61861583  0.17855404    -0.65000
O211        O  0.87614365  0.65198694  0.19463623    -1.11700
C212        C  0.83710895  0.76772866  0.15111312     1.06500
O213        O  0.78091226  0.63695992  0.14271785    -0.78300
O214        O  0.84064843  0.67976555  0.12733747    -0.65800
Ni215      Ni  0.89344235  0.65184559  0.22571854     1.34900
C216        C  0.87679949  0.67406139  0.13301365     0.85300
O217        O  0.82789372  0.58567325  0.20489913    -0.78800
O218        O  0.85383562  0.61334770  0.23587294    -0.89100
C219        C  0.76196773  0.61548115  0.15684261     0.84800
O220        O  0.85688279  0.69395466  0.23096438    -0.67300
O221        O  0.80674781  0.74814612  0.14416366    -0.86600
C222        C  0.81903217  0.69245675  0.22824392     0.85700
C223        C  0.83870329  0.58314696  0.22577074     1.07200
H224        H  0.80056946  0.70447581  0.18340007     0.39000
O225        O  0.81741586  0.68722479  0.17434535    -1.09200
O226        O  0.89101772  0.68118863  0.15278247    -0.65900
Ni227      Ni  0.87073457  0.70406625  0.18023268     1.26300
O228        O  0.80157594  0.66447894  0.21637980    -0.66100
O229        O  0.86327881  0.75443183  0.16518286    -0.78400
C230        C  0.94766988  0.71375766  0.20396530     0.85100
O231        O  0.92495182  0.72108286  0.18683684    -0.65600
Ni232      Ni  0.79445438  0.69226295  0.14472070     1.27400
Ni233      Ni  0.82170813  0.63609472  0.18891332     1.26100
H234        H  0.89384308  0.63488365  0.18599476     0.39600
O235        O  0.59476028  0.34586881  0.02566969    -0.80400
O236        O  0.67173039  0.50583846  0.07455849    -0.65000
O237        O  0.63583240  0.40153508  0.05271620    -1.11700
C238        C  0.52155082  0.44322118  0.09559182     1.06500
O239        O  0.65395286  0.48315318  0.10862382    -0.78300
O240        O  0.59944175  0.42981205  0.12129827    -0.65800
Ni241      Ni  0.63404086  0.38895113  0.02117690     1.34900
C242        C  0.61581954  0.39756758  0.11482723     0.85300
O243        O  0.70291227  0.44932552  0.04491517    -0.78800
O244        O  0.67415832  0.42842165  0.01305677    -0.89100
C245        C  0.67438229  0.50719249  0.09664895     0.84800
O246        O  0.59392759  0.42808993  0.01782991    -0.67300
O247        O  0.54131310  0.47462450  0.10083939    -0.86600
C248        C  0.59584786  0.46523877  0.02295610     0.85700
C249        C  0.70505872  0.44072724  0.02374707     1.07200
H250        H  0.58526646  0.47602111  0.06614803     0.39000
O251        O  0.60244727  0.45832635  0.07488090    -1.09200
O252        O  0.61287534  0.38458828  0.09453368    -0.65900
Ni253      Ni  0.58544744  0.40568880  0.06835925     1.26300
O254        O  0.62557458  0.48027765  0.03446391    -0.66100
O255        O  0.53602172  0.41294517  0.08483069    -0.78400
C256        C  0.57350043  0.33255627  0.04223304     0.85100
O257        O  0.56938110  0.35168899  0.06095773    -0.65600
Ni258      Ni  0.59755955  0.47896191  0.10446876     1.27400
Ni259      Ni  0.65317318  0.45476097  0.06091339     1.26100
H260        H  0.65273237  0.38168641  0.06002009     0.39600
O261        O  0.90933793  0.00937312  0.11275089    -0.80400
O262        O  0.99042991  0.86549628  0.05852536    -0.65000
O263        O  0.95405227  0.96725289  0.08083042    -1.11700
C264        C  0.85601405  0.95599286  0.02503128     1.06500
O265        O  0.95556350  0.85513512  0.02672221    -0.78300
O266        O  0.96664367  0.93755547  0.02362674    -0.65800
Ni267      Ni  0.95392443  0.97362294  0.11325810     1.34900
C268        C  0.96498307  0.97538862  0.02701894     0.85300
O269        O  0.02111926  0.92107016  0.08414869    -0.78800
O270        O  0.99925043  0.93849476  0.11855790    -0.89100
C271        C  0.98234829  0.84430127  0.04111071     0.84800
O272        O  0.91717131  0.93125112  0.11603730    -0.67300
O273        O  0.88877621  0.94796683  0.01548747    -0.86600
C274        C  0.92208899  0.89539016  0.10962043     0.85700
C275        C  0.02533082  0.92313065  0.10549640     1.07200
H276        H  0.90197687  0.89508420  0.06231935     0.39000
O277        O  0.92004072  0.91371138  0.05516113    -1.09200
O278        O  0.93690721  0.99210991  0.03909135    -0.65900
Ni279      Ni  0.90470207  0.96715795  0.06413178     1.26300
O280        O  0.94861817  0.88561775  0.09503617    -0.66100
O281        O  0.85598667  0.96422097  0.04627308    -0.78400
C282        C  0.88565341  0.02623348  0.09865621     0.85100
O283        O  0.88664382  0.01891769  0.07693719    -0.65600
Ni284      Ni  0.92223000  0.90304132  0.02322374     1.27400
Ni285      Ni  0.97127183  0.91617748  0.06979639     1.26100
H286        H  0.97199660  0.98742671  0.07499568     0.39600
O287        O  0.77043115  0.16102444  0.14329868    -0.80400
O288        O  0.62668931  0.23829312  0.19911526    -0.65000
O289        O  0.72788930  0.19754685  0.17848278    -1.11700
C290        C  0.69875921  0.08043121  0.21739778     1.06500
O291        O  0.60132245  0.18752176  0.21924997    -0.78300
O292        O  0.68247623  0.18744690  0.23296373    -0.65800
Ni293      Ni  0.74245104  0.21068222  0.14794172     1.34900
C294        C  0.72050502  0.18518221  0.23070186     0.85300
O295        O  0.69369333  0.27153092  0.18431791    -0.78800
O296        O  0.71703845  0.26281580  0.14912581    -0.89100
C297        C  0.59793882  0.22207974  0.20991034     0.84800
O298        O  0.69597844  0.18542617  0.13649795    -0.67300
O299        O  0.68238095  0.10651693  0.23008530    -0.86600
C300        C  0.66060760  0.19242371  0.14289373     0.85700
C301        C  0.70286403  0.28523525  0.16480427     1.07200
H302        H  0.64597431  0.15131873  0.18193277     0.39000
O303        O  0.66464394  0.16105903  0.19329462    -1.09200
O304        O  0.73707990  0.15935718  0.21710010    -0.65900
Ni305      Ni  0.71786280  0.14270227  0.18650811     1.26300
O306        O  0.65269241  0.21569828  0.15938695    -0.66100
O307        O  0.70745940  0.08841091  0.19669009    -0.78400
C308        C  0.78305509  0.13116368  0.15496498     0.85100
O309        O  0.77058341  0.12453850  0.17557677    -0.65600
Ni310      Ni  0.64465967  0.14877794  0.22295495     1.27400
Ni311      Ni  0.67769544  0.21746409  0.18895273     1.26100
H312        H  0.74846850  0.20885461  0.18787125     0.39600
O313        O  0.11266909  0.82555290  0.22185626    -0.80400
O314        O  0.28150748  0.88552666  0.17560282    -0.65000
O315        O  0.17496751  0.85461624  0.19486567    -1.11700
C316        C  0.18969757  0.74192474  0.15184503     1.06500
O317        O  0.27582936  0.85836805  0.14071751    -0.78300
O318        O  0.19745856  0.84861180  0.13541126    -0.65800
Ni319      Ni  0.15964228  0.85974163  0.22603595     1.34900
C320        C  0.16184699  0.84220137  0.14157033     0.85300
O321        O  0.22366187  0.92090922  0.20100826    -0.78800
O322        O  0.20204948  0.89656909  0.23388775    -0.89100
C323        C  0.29168338  0.88355454  0.15433546     0.84800
O324        O  0.19452139  0.81582136  0.23108857    -0.67300
O325        O  0.20604737  0.76648618  0.13796608    -0.86600
C326        C  0.23232478  0.81556511  0.22805998     0.85700
C327        C  0.21392352  0.92578429  0.22171556     1.07200
H328        H  0.25238583  0.80107169  0.18108111     0.39000
O329        O  0.23193699  0.81712169  0.17369213    -1.09200
O330        O  0.15246157  0.81691133  0.15704756    -0.65900
Ni331      Ni  0.18087134  0.80024374  0.18434880     1.26300
O332        O  0.24987323  0.84229401  0.21518578    -0.66100
O333        O  0.18813509  0.74801693  0.17308240    -0.78400
C334        C  0.10514782  0.79491839  0.20950109     0.85100
O335        O  0.13031129  0.78151157  0.19534973    -0.65600
Ni336      Ni  0.24038023  0.81308473  0.14148756     1.27400
Ni337      Ni  0.22873731  0.86922055  0.18701962     1.26100
H338        H  0.15633605  0.86992670  0.18560951     0.39600
O339        O  0.46667089  0.16342669  0.02688002    -0.80400
O340        O  0.39446077  0.00219668  0.07974036    -0.65000
O341        O  0.42644306  0.10692245  0.05581584    -1.11700
C342        C  0.52533710  0.10614195  0.10944230     1.06500
O343        O  0.41221368  0.01637077  0.11591541    -0.78300
O344        O  0.41460152  0.09584555  0.11516204    -0.65800
Ni345      Ni  0.43091204  0.11703744  0.02382571     1.34900
C346        C  0.42067226  0.13106159  0.10774944     0.85300
O347        O  0.36408146  0.05407518  0.04750736    -0.78800
O348        O  0.39483517  0.07403290  0.01597293    -0.89100
C349        C  0.39172515  0.99636653  0.10158244     0.84800
O350        O  0.47427241  0.08113221  0.02516584    -0.67300
O351        O  0.49698844  0.09383505  0.12210616    -0.86600
C352        C  0.47221322  0.04347377  0.02888961     0.85700
C353        C  0.36338245  0.06339223  0.02641835     1.07200
H354        H  0.47791241  0.03526511  0.07960727     0.39000
O355        O  0.45923385  0.05598503  0.08397037    -1.09200
O356        O  0.45036901  0.13906582  0.09499902    -0.65900
Ni357      Ni  0.47623707  0.10639498  0.07201077     1.26300
O358        O  0.44477255  0.02755192  0.04178632    -0.66100
O359        O  0.52444691  0.10318105  0.08807456    -0.78400
C360        C  0.49078117  0.17592186  0.04228807     0.85100
O361        O  0.49537703  0.15664166  0.06076755    -0.65600
Ni362      Ni  0.45423445  0.05522412  0.11661352     1.27400
Ni363      Ni  0.41164206  0.05361924  0.06595982     1.26100
H364        H  0.40712745  0.12525453  0.06200806     0.39600
O365        O  0.29170464  0.40305512  0.14428692    -0.80400
O366        O  0.42258129  0.30702203  0.18710828    -0.65000
O367        O  0.31768183  0.34154332  0.17066979    -1.11700
C368        C  0.32686305  0.42807073  0.23239583     1.06500
O369        O  0.42809558  0.32682148  0.22306306    -0.78300
O370        O  0.34614244  0.31697920  0.22702627    -0.65800
Ni371      Ni  0.30480074  0.34855704  0.13927370     1.34900
C372        C  0.30838563  0.31932620  0.22419966     0.85300
O373        O  0.36755883  0.28021911  0.15880960    -0.78800
O374        O  0.31864973  0.29397622  0.13311913    -0.89100
C375        C  0.44193923  0.30794778  0.20581391     0.84800
O376        O  0.35434456  0.36795020  0.12831175    -0.67300
O377        O  0.33876733  0.39457220  0.24047418    -0.86600
C378        C  0.38782870  0.37283511  0.13797515     0.85700
C379        C  0.34523871  0.27101968  0.14189616     1.07200
H380        H  0.38643836  0.39237591  0.19297658     0.39000
O381        O  0.36913060  0.37132406  0.19838758    -1.09200
O382        O  0.29129410  0.34905298  0.21343107    -0.65900
Ni383      Ni  0.31476770  0.38656287  0.19050610     1.26300
O384        O  0.39629947  0.35691156  0.15698464    -0.66100
O385        O  0.31515175  0.43123671  0.21161717    -0.78400
C386        C  0.26108678  0.41122710  0.15573962     0.85100
O387        O  0.26198342  0.40351037  0.17750527    -0.65600
Ni388      Ni  0.38154504  0.36081383  0.22956466     1.27400
Ni389      Ni  0.36977119  0.32476958  0.17885723     1.26100
H390        H  0.29973901  0.32089912  0.17597806     0.39600
O391        O  0.11533530  0.50688676  0.10474547    -0.80400
O392        O  0.05499096  0.66318828  0.05229006    -0.65000
O393        O  0.08529427  0.55728526  0.07060471    -1.11700
C394        C  0.20197482  0.57625114  0.02946588     1.06500
O395        O  0.10115761  0.68259076  0.02759814    -0.78300
O396        O  0.09748756  0.60087589  0.01468884    -0.65800
Ni397      Ni  0.07007450  0.54148409  0.10090304     1.34900
C398        C  0.09634010  0.56277010  0.01781910     0.85300
O399        O  0.01627211  0.60204222  0.06721872    -0.78800
O400        O  0.02305562  0.57593327  0.10194121    -0.89100
C401        C  0.06938075  0.68936481  0.03897543     0.84800
O402        O  0.10228737  0.58178679  0.11327765    -0.67300
O403        O  0.17754816  0.59683259  0.01748658    -0.86600
C404        C  0.10158784  0.61844646  0.10790598     0.85700
C405        C  0.00366101  0.59648340  0.08716598     1.07200
H406        H  0.13969672  0.63495365  0.06546947     0.39000
O407        O  0.12692188  0.61721499  0.05462338    -1.09200
O408        O  0.12030996  0.54417136  0.03190628    -0.65900
Ni409      Ni  0.14049022  0.56239447  0.06182946     1.26300
O410        O  0.08185601  0.63264788  0.09099253    -0.66100
O411        O  0.19434249  0.56708751  0.05020029    -0.78400
C412        C  0.14748783  0.49726817  0.09465310     0.85100
O413        O  0.15516741  0.50890566  0.07394530    -0.65600
Ni414      Ni  0.13784426  0.63684672  0.02454846     1.27400
Ni415      Ni  0.07090255  0.61024423  0.06119262     1.26100
H416        H  0.07160641  0.53851024  0.06072335     0.39600
O417        O  0.42639785  0.81531858  0.77734498    -0.80400
O418        O  0.26898135  0.88980097  0.82936799    -0.65000
O419        O  0.37378546  0.86536810  0.80409777    -1.11700
C420        C  0.36943533  0.75580906  0.85641532     1.06500
O421        O  0.28930752  0.87307715  0.86456562    -0.78300
O422        O  0.35853199  0.84293933  0.87579578    -0.65800
Ni423      Ni  0.38465327  0.85660733  0.77268951     1.34900
C424        C  0.38870125  0.86003541  0.86720666     0.85300
O425        O  0.31507507  0.92210980  0.79490246    -0.78800
O426        O  0.34660558  0.89807583  0.76407271    -0.89100
C427        C  0.26768388  0.89429635  0.85137298     0.84800
O428        O  0.34581352  0.81552753  0.77129912    -0.67300
O429        O  0.33552371  0.76805084  0.86338211    -0.86600
C430        C  0.30950270  0.81519156  0.77746460     0.85700
C431        C  0.32562695  0.92509745  0.77394969     1.07200
H432        H  0.31328255  0.80538984  0.82363029     0.39000
O433        O  0.32749383  0.82686760  0.83118317    -1.09200
O434        O  0.39954245  0.85574946  0.84661380    -0.65900
Ni435      Ni  0.38210041  0.82026971  0.82319531     1.26300
O436        O  0.29390181  0.84196304  0.79063733    -0.66100
O437        O  0.39006334  0.77513140  0.84208050    -0.78400
C438        C  0.44786650  0.80589178  0.79474288     0.85100
O439        O  0.43677088  0.81478970  0.81473820    -0.65600
Ni440      Ni  0.31228358  0.82068296  0.86230980     1.27400
Ni441      Ni  0.31993760  0.87557268  0.81415328     1.26100
H442        H  0.39060245  0.88735862  0.80896969     0.39600
O443        O  0.10262688  0.16953339  0.97953147    -0.80400
O444        O  0.16782207  0.00246675  0.93191816    -0.65000
O445        O  0.14190491  0.11108491  0.95211746    -1.11700
C446        C  0.02006634  0.08102452  0.91272363     1.06500
O447        O  0.14388590  0.01851791  0.89760125    -0.78300
O448        O  0.09892282  0.07966158  0.88543309    -0.65800
Ni449      Ni  0.14316375  0.12700013  0.98314963     1.34900
C450        C  0.11790501  0.11109394  0.89103820     0.85300
O451        O  0.20552120  0.05847225  0.95859560    -0.78800
O452        O  0.18524910  0.08885667  0.99067049    -0.89100
C453        C  0.16679534  0.99716325  0.90998073     0.84800
O454        O  0.10299450  0.08880309  0.98882286    -0.67300
O455        O  0.03490541  0.04685594  0.90790941    -0.86600
C456        C  0.10395103  0.05093659  0.98604790     0.85700
C457        C  0.21183280  0.07105984  0.97879874     1.07200
H458        H  0.08372649  0.04159736  0.94256312     0.39000
O459        O  0.10134928  0.05585586  0.93243378    -1.09200
O460        O  0.11747863  0.12610616  0.91083066    -0.65900
Ni461      Ni  0.09045033  0.11086324  0.93767586     1.26300
O462        O  0.12966243  0.03360529  0.97284428    -0.66100
O463        O  0.04004706  0.10913883  0.92220134    -0.78400
C464        C  0.08267972  0.18449920  0.96277203     0.85100
O465        O  0.08024658  0.16677864  0.94356451    -0.65600
Ni466      Ni  0.08971304  0.03305352  0.90364686     1.27400
Ni467      Ni  0.15401451  0.05583979  0.94465116     1.26100
H468        H  0.16018561  0.12846077  0.94399780     0.39600
O469        O  0.60652255  0.68489683  0.78113135    -0.80400
O470        O  0.77703924  0.61615329  0.82479625    -0.65000
O471        O  0.66789213  0.64671994  0.80805187    -1.11700
C472        C  0.68432735  0.75567853  0.85527461     1.06500
O473        O  0.77772615  0.64495668  0.85939574    -0.78300
O474        O  0.70137217  0.64955053  0.86868972    -0.65800
Ni475      Ni  0.64886328  0.64477154  0.77706640     1.34900
C476        C  0.66449394  0.65215841  0.86416115     0.85300
O477        O  0.71967663  0.58210371  0.79880041    -0.78800
O478        O  0.68593181  0.60320489  0.76817315    -0.89100
C479        C  0.79035383  0.61885467  0.84554131     0.84800
O480        O  0.68609349  0.68521704  0.76967826    -0.67300
O481        O  0.70454597  0.73151156  0.86753650    -0.86600
C482        C  0.72353401  0.68665820  0.77365720     0.85700
C483        C  0.70766520  0.57713795  0.77833516     1.07200
H484        H  0.74365401  0.70162440  0.82092664     0.39000
O485        O  0.72564236  0.68401538  0.82907582    -1.09200
O486        O  0.64979767  0.67596443  0.84910713    -0.65900
Ni487      Ni  0.67206950  0.69897622  0.82142183     1.26300
O488        O  0.74204717  0.66128684  0.78696697    -0.66100
O489        O  0.67789442  0.75015246  0.83432514    -0.78400
C490        C  0.59693806  0.71037898  0.79642831     0.85100
O491        O  0.61868387  0.71555129  0.81395932    -0.65600
Ni492      Ni  0.74031633  0.68777328  0.86083851     1.27400
Ni493      Ni  0.72298853  0.63251694  0.81452664     1.26100
H494        H  0.65040222  0.62990838  0.81697586     0.39600
O495        O  0.96646712  0.34879895  0.97800566    -0.80400
O496        O  0.89352921  0.50933003  0.92388134    -0.65000
O497        O  0.92631632  0.40499623  0.94806048    -1.11700
C498        C  0.03081874  0.41020346  0.89856706     1.06500
O499        O  0.92063261  0.50209457  0.88906719    -0.78300
O500        O  0.92212208  0.42236396  0.88763953    -0.65800
Ni501      Ni  0.92674869  0.39270027  0.98015395     1.34900
C502        C  0.92700897  0.38646462  0.89437431     0.85300
O503        O  0.86157041  0.45563036  0.95425333    -0.78800
O504        O  0.88635704  0.43225167  0.98720613    -0.89100
C505        C  0.89620324  0.51896849  0.90245404     0.84800
O506        O  0.96677712  0.43196409  0.98350045    -0.67300
O507        O  0.00426951  0.42390944  0.88503825    -0.86600
C508        C  0.96704355  0.46852912  0.97683121     0.85700
C509        C  0.85763823  0.44634579  0.97528557     1.07200
H510        H  0.97870277  0.47870390  0.92829824     0.39000
O511        O  0.96118901  0.45814384  0.92228234    -1.09200
O512        O  0.95406052  0.37672664  0.90879781    -0.65900
Ni513      Ni  0.97748167  0.40702639  0.93376308     1.26300
O514        O  0.94014770  0.48356968  0.96317495    -0.66100
O515        O  0.02742825  0.41145738  0.91988519    -0.78400
C516        C  0.99121018  0.33674014  0.96286370     0.85100
O517        O  0.99546530  0.35592755  0.94437542    -0.65600
Ni518      Ni  0.96176426  0.46257361  0.88957026     1.27400
Ni519      Ni  0.91093108  0.45785160  0.93775314     1.26100
H520        H  0.90822670  0.38669142  0.94071755     0.39600
O521        O  0.80209046  0.12237588  0.85860735    -0.80400
O522        O  0.93661944  0.20885115  0.81582965    -0.65000
O523        O  0.82907867  0.17821954  0.82823902    -1.11700
C524        C  0.84657105  0.07733927  0.77406492     1.06500
O525        O  0.93893757  0.19275166  0.77912145    -0.78300
O526        O  0.85946574  0.18700229  0.76800631    -0.65800
Ni527      Ni  0.81005576  0.17873006  0.85859406     1.34900
C528        C  0.82252251  0.18744913  0.77300169     0.85300
O529        O  0.87749495  0.24063655  0.84085911    -0.78800
O530        O  0.81853411  0.23500455  0.85942643    -0.89100
C531        C  0.95356397  0.21127859  0.79641192     0.81600
O532        O  0.85841997  0.16913829  0.87515204    -0.67300
O533        O  0.86657754  0.10502358  0.76418217    -0.86600
C534        C  0.89136171  0.15631733  0.86757546     0.85700
C535        C  0.84966046  0.25443770  0.85359038     1.07200
H536        H  0.90200547  0.12583994  0.81180716     0.39000
O537        O  0.88398573  0.14492323  0.80473265    -1.09200
O538        O  0.80614540  0.16067663  0.78615339    -0.65900
Ni539      Ni  0.82957127  0.12922074  0.81180837     1.26300
O540        O  0.90303328  0.16251801  0.84729499    -0.66100
O541        O  0.83188889  0.08098737  0.79401563    -0.78400
C542        C  0.77479049  0.10755945  0.84633351     0.85100
O543        O  0.77704230  0.11205713  0.82434336    -0.65600
Ni544      Ni  0.90031306  0.14922432  0.77372700     1.27400
Ni545      Ni  0.88228517  0.19344593  0.82241967     1.26100
H546        H  0.81225531  0.19738931  0.82027582     0.39600
O547        O  0.63740563  0.99961696  0.89301227    -0.80400
O548        O  0.55586291  0.86130717  0.95146210    -0.65000
O549        O  0.59709152  0.96138248  0.92866696    -1.11700
C550        C  0.70737400  0.93890099  0.97397076     1.06500
O551        O  0.60271366  0.83890964  0.97548397    -0.78300
O552        O  0.60002014  0.92156770  0.98561431    -0.65800
Ni553      Ni  0.58779261  0.97279453  0.89717479     1.34900
C554        C  0.60239416  0.95967331  0.98273296     0.85300
O555        O  0.52431992  0.92689120  0.93304527    -0.78800
O556        O  0.53626495  0.94750594  0.89752365    -0.89100
C557        C  0.57003135  0.83402423  0.96449748     0.84800
O558        O  0.61411701  0.92545564  0.88834578    -0.67300
O559        O  0.68024764  0.92329092  0.98620372    -0.86600
C560        C  0.60663706  0.89043673  0.89544087     0.85700
C561        C  0.51244372  0.93598900  0.91315043     1.07200
H562        H  0.64374167  0.88076016  0.93776667     0.39000
O563        O  0.63217968  0.90042934  0.94788172    -1.09200
O564        O  0.62784646  0.97622573  0.96870105    -0.65900
Ni565      Ni  0.64996493  0.95375090  0.93975064     1.26300
O566        O  0.58345544  0.88315256  0.91207349    -0.66100
O567        O  0.70204364  0.94598390  0.95280965    -0.78400
C568        C  0.66607654  0.01295206  0.90501304     0.85100
O569        O  0.66884631  0.00536051  0.92675876    -0.65600
Ni570      Ni  0.64020855  0.88358963  0.97878820     1.27400
Ni571      Ni  0.57707469  0.91180605  0.94032678     1.26100
H572        H  0.58396377  0.98276118  0.93671989     0.39600
O573        O  0.27619652  0.35005245  0.86527598    -0.80400
O574        O  0.13093702  0.28530254  0.80585086    -0.65000
O575        O  0.23478593  0.31342719  0.82895262    -1.11700
C576        C  0.22380518  0.42701282  0.78409549     1.06500
O577        O  0.11594079  0.33220994  0.78010008    -0.78300
O578        O  0.19825338  0.32014518  0.77166465    -0.65800
Ni579      Ni  0.24533266  0.30188071  0.86030877     1.34900
C580        C  0.23565002  0.31748286  0.77638015     0.85300
O581        O  0.19052503  0.24461364  0.82385130    -0.78800
O582        O  0.21569209  0.25177936  0.85900433    -0.89100
C583        C  0.10654490  0.30126815  0.79180773     0.84800
O584        O  0.20031189  0.33077950  0.87028066    -0.67300
O585        O  0.20859230  0.39981917  0.77170352    -0.86600
C586        C  0.16491789  0.32733589  0.86294588     0.85700
C587        C  0.19838392  0.23091019  0.84349901     1.07200
H588        H  0.16009648  0.36925382  0.81925370     0.39000
O589        O  0.17870601  0.35549208  0.80940407    -1.09200
O590        O  0.25384009  0.34289578  0.78982164    -0.65900
Ni591      Ni  0.23299615  0.36761682  0.81829214     1.26300
O592        O  0.15554837  0.30840490  0.84494170    -0.66100
O593        O  0.23061358  0.42087436  0.80527246    -0.78400
C594        C  0.29332119  0.37735583  0.85354456     0.85100
O595        O  0.28577474  0.38127582  0.83182651    -0.65600
Ni596      Ni  0.16458505  0.36460452  0.77799311     1.27400
Ni597      Ni  0.18332388  0.29936838  0.81691736     1.26100
H598        H  0.25477828  0.29822437  0.82082374     0.39600
O599        O  0.41605982  0.50344646  0.89825287    -0.80400
O600        O  0.49608326  0.65034065  0.95067363    -0.65000
O601        O  0.45797778  0.54677011  0.93137343    -1.11700
C602        C  0.35066056  0.56770535  0.97951249     1.06500
O603        O  0.44946234  0.67347694  0.97387780    -0.78300
O604        O  0.45807648  0.59241126  0.98750259    -0.65800
Ni605      Ni  0.46412982  0.53449585  0.89989904     1.34900
C606        C  0.45963109  0.55427723  0.98467016     0.85300
O607        O  0.52926024  0.58613462  0.93256468    -0.78800
O608        O  0.51415551  0.56352122  0.89782877    -0.89100
C609        C  0.48173432  0.67863530  0.96271472     0.84800
O610        O  0.43335448  0.57962134  0.89110099    -0.67300
O611        O  0.37852333  0.58618711  0.98982385    -0.86600
C612        C  0.44094968  0.61541953  0.89665496     0.85700
C613        C  0.53911699  0.57772293  0.91231583     1.07200
H614        H  0.40785633  0.62514123  0.93919130     0.39000
O615        O  0.42137598  0.60716224  0.94967536    -1.09200
O616        O  0.43325308  0.53474927  0.97247653    -0.65900
Ni617      Ni  0.40587220  0.55221719  0.94386452     1.26300
O618        O  0.46545117  0.62470338  0.91244361    -0.66100
O619        O  0.35464038  0.55772716  0.95862924    -0.78400
C620        C  0.39032758  0.48832910  0.91168011     0.85100
O621        O  0.38917712  0.49801454  0.93319318    -0.65600
Ni622      Ni  0.41510164  0.62713089  0.97989831     1.27400
Ni623      Ni  0.47636890  0.59828100  0.94112745     1.26100
H624        H  0.47294141  0.52627754  0.93950709     0.39600
O625        O  0.14941814  0.49135164  0.39351393    -0.80400
O626        O  0.04915434  0.35967842  0.44001591    -0.65000
O627        O  0.09037703  0.46319674  0.42272397    -1.11700
C628        C  0.18485130  0.44623552  0.47980030     1.06500
O629        O  0.08059929  0.34719226  0.47291658    -0.78300
O630        O  0.07375021  0.42905171  0.48017753    -0.65800
Ni631      Ni  0.09415579  0.47825558  0.39154504     1.34900
C632        C  0.07494300  0.46645325  0.47537402     0.85300
O633        O  0.02220498  0.41963518  0.41412250    -0.78800
O634        O  0.03922762  0.46527262  0.38711823    -0.89100
C635        C  0.05573907  0.33696129  0.45728121     0.84800
O636        O  0.11173440  0.42830086  0.37988298    -0.67300
O637        O  0.15276589  0.43399975  0.48899721    -0.86600
C638        C  0.11121604  0.39308834  0.38801107     0.85700
C639        C  0.01494191  0.44056515  0.39627647     1.07200
H640        H  0.13778183  0.38733000  0.43993365     0.39000
O641        O  0.12019861  0.40625262  0.44730139    -1.09200
O642        O  0.10504260  0.48295457  0.46493861    -0.65900
Ni643      Ni  0.13799029  0.45987708  0.44016153     1.26300
O644        O  0.09340173  0.38448153  0.40638299    -0.66100
O645        O  0.18523265  0.45465406  0.45861550    -0.78400
C646        C  0.16569687  0.51514071  0.40749578     0.85100
O647        O  0.15743843  0.51247428  0.42899003    -0.65600
Ni648      Ni  0.11644283  0.39241469  0.47885555     1.27400
Ni649      Ni  0.06994077  0.41189361  0.43117960     1.26100
H650        H  0.07276046  0.48316171  0.42916038     0.39600
O651        O  0.27135130  0.65482236  0.36026119    -0.80400
O652        O  0.41411080  0.73014137  0.30256898    -0.65000
O653        O  0.31269118  0.69104505  0.32431324    -1.11700
C654        C  0.34032367  0.57382484  0.28565443     1.06500
O655        O  0.43746464  0.67977146  0.28156143    -0.78300
O656        O  0.35614878  0.68110095  0.26953400    -0.65800
Ni657      Ni  0.29815309  0.70460208  0.35475033     1.34900
C658        C  0.31820694  0.68008958  0.27206918     0.85300
O659        O  0.34849994  0.76437594  0.31820929    -0.78800
O660        O  0.32335595  0.75635207  0.35302075    -0.89100
C661        C  0.44182911  0.71411546  0.29084371     0.84800
O662        O  0.34438507  0.68046447  0.36686902    -0.67300
O663        O  0.35489735  0.60022438  0.27242883    -0.86600
C664        C  0.37997927  0.68558897  0.36049508     0.85700
C665        C  0.33839346  0.77836670  0.33740744     1.07200
H666        H  0.39380046  0.64347307  0.31997278     0.39000
O667        O  0.37492794  0.65373336  0.30879938    -1.09200
O668        O  0.30129659  0.65433660  0.28581785    -0.65900
Ni669      Ni  0.32170317  0.63625311  0.31624272     1.26300
O670        O  0.38857817  0.70637451  0.34286278    -0.66100
O671        O  0.33109848  0.58199392  0.30616562    -0.78400
C672        C  0.25922088  0.62436467  0.34921282     0.85100
O673        O  0.26973380  0.61825728  0.32822949    -0.65600
Ni674      Ni  0.39355450  0.64161307  0.27886325     1.27400
Ni675      Ni  0.36301968  0.71008871  0.31342627     1.26100
H676        H  0.29195022  0.70277537  0.31488449     0.39600
O677        O  0.90468594  0.02600050  0.39103656    -0.80400
O678        O  0.98696178  0.15549496  0.44291697    -0.65000
O679        O  0.95532544  0.05079955  0.42483266    -1.11700
C680        C  0.84653440  0.06194121  0.47335255     1.06500
O681        O  0.94973290  0.16625842  0.47384794    -0.78300
O682        O  0.95535171  0.08358026  0.48285310    -0.65800
Ni683      Ni  0.96076083  0.03439972  0.39423701     1.34900
C684        C  0.95552660  0.04568723  0.47935835     0.85300
O685        O  0.02186718  0.09836227  0.41880124    -0.78800
O686        O  0.01693372  0.04336555  0.39632301    -0.89100
C687        C  0.97625189  0.17747291  0.45945900     0.84800
O688        O  0.95378165  0.08464611  0.37886793    -0.67300
O689        O  0.87359189  0.07965700  0.48506000    -0.86600
C690        C  0.94737641  0.11949915  0.38656543     0.85700
C691        C  0.03538077  0.07438888  0.40360715     1.07200
H692        H  0.90081750  0.12374641  0.43758272     0.39000
O693        O  0.91747377  0.10549883  0.44635235    -1.09200
O694        O  0.93010806  0.02834392  0.46566611    -0.65900
Ni695      Ni  0.90364031  0.05129913  0.43795279     1.26300
O696        O  0.94980297  0.12815101  0.40750487    -0.66100
O697        O  0.85219954  0.05298659  0.45246454    -0.78400
C698        C  0.88700121  0.99844773  0.40194213     0.85100
O699        O  0.88932908  0.99903179  0.42406855    -0.65600
Ni700      Ni  0.91320120  0.12039758  0.47746853     1.27400
Ni701      Ni  0.97098445  0.10269135  0.43365566     1.26100
H702        H  0.97229579  0.03252413  0.43327378     0.39600
O703        O  0.74248399  0.89918370  0.35459849    -0.80400
O704        O  0.60663358  0.81280254  0.31540528    -0.65000
O705        O  0.71507461  0.83770938  0.32995648    -1.11700
C706        C  0.70754551  0.92919873  0.26790918     1.06500
O707        O  0.61264325  0.81540182  0.27756499    -0.78300
O708        O  0.69214824  0.82042773  0.26705159    -0.65800
Ni709      Ni  0.72990053  0.84498525  0.36095275     1.34900
C710        C  0.72854143  0.81936657  0.27349889     0.85300
O711        O  0.65882289  0.78517049  0.34619335    -0.78800
O712        O  0.71438097  0.79138336  0.36819770    -0.89100
C713        C  0.59371770  0.80436038  0.29547843     0.84800
O714        O  0.68205545  0.86491644  0.37344397    -0.67300
O715        O  0.68361897  0.90251786  0.26017576    -0.86600
C716        C  0.65083848  0.87709160  0.36345060     0.85700
C717        C  0.68178066  0.77404701  0.36258800     1.07200
H718        H  0.64939072  0.89075755  0.30605270     0.39000
O719        O  0.66598547  0.86858911  0.30145466    -1.09200
O720        O  0.74427056  0.84493274  0.28742681    -0.65900
Ni721      Ni  0.72071251  0.88229563  0.30946476     1.26300
O722        O  0.64041048  0.86516700  0.34373876    -0.66100
O723        O  0.72363024  0.92618725  0.28778733    -0.78400
C724        C  0.77429207  0.90585648  0.34406489     0.85100
O725        O  0.77406231  0.89741327  0.32249557    -0.65600
Ni726      Ni  0.65069909  0.85863899  0.27076802     1.27400
Ni727      Ni  0.66116575  0.82583090  0.32326171     1.26100
H728        H  0.73097731  0.81546479  0.32452683     0.39600
O729        O  0.45053451  0.84198609  0.47076435    -0.80400
O730        O  0.36924222  0.00458678  0.42509636    -0.65000
O731        O  0.40817351  0.89954976  0.44576447    -1.11700
C732        C  0.51793313  0.94544419  0.40093557     1.06500
O733        O  0.38321632  0.98029936  0.39101554    -0.78300
O734        O  0.43814987  0.92941108  0.37631082    -0.65800
Ni735      Ni  0.41324885  0.88591574  0.47693599     1.34900
C736        C  0.42362665  0.89658514  0.38331934     0.85300
O737        O  0.34212986  0.94716753  0.45628838    -0.78800
O738        O  0.37481030  0.92570919  0.48689296    -0.89100
C739        C  0.36437698  0.00535918  0.40300877     0.84800
O740        O  0.45447920  0.92451216  0.47818705    -0.67300
O741        O  0.49645270  0.97532401  0.39478708    -0.86600
C742        C  0.44990828  0.96245309  0.47615608     0.85700
C743        C  0.34266767  0.93820098  0.47748982     1.07200
H744        H  0.45645284  0.97451332  0.43110313     0.39000
O745        O  0.43861996  0.95709681  0.42285506    -1.09200
O746        O  0.42882825  0.88346389  0.40349411    -0.65900
Ni747      Ni  0.45729391  0.90491662  0.42894576     1.26300
O748        O  0.42028820  0.97822997  0.46458152    -0.66100
O749        O  0.50481726  0.91424995  0.41154657    -0.78400
C750        C  0.47223063  0.83023226  0.45411058     0.85100
O751        O  0.47630578  0.85110913  0.43587259    -0.65600
Ni752      Ni  0.43995376  0.97813808  0.39307318     1.27400
Ni753      Ni  0.38982181  0.95325968  0.43857531     1.26100
H754        H  0.39092945  0.87979099  0.43879632     0.39600
O755        O  0.10445814  0.18603711  0.27091885    -0.80400
O756        O  0.26952377  0.10950827  0.31747794    -0.65000
O757        O  0.16464074  0.14819709  0.29821275    -1.11700
C758        C  0.18743670  0.25929195  0.34285152     1.06500
O759        O  0.27044124  0.14081261  0.35130853    -0.78300
O760        O  0.19446217  0.15284897  0.35896489    -0.65800
Ni761      Ni  0.14824400  0.14724382  0.26687141     1.34900
C762        C  0.15792355  0.15756568  0.35392073     0.85300
O763        O  0.20994190  0.07970337  0.29060625    -0.78800
O764        O  0.18671541  0.10687218  0.25842125    -0.89100
C765        C  0.28175575  0.11263108  0.33845171     0.84800
O766        O  0.18718470  0.18756275  0.26212692    -0.67300
O767        O  0.20591790  0.23428735  0.35550275    -0.86600
C768        C  0.22495953  0.18355119  0.26490659     0.85700
C769        C  0.20013224  0.07688449  0.26961168     1.07200
H770        H  0.24320265  0.19824944  0.31122187     0.39000
O771        O  0.22382786  0.18228579  0.31931043    -1.09200
O772        O  0.14631756  0.18225710  0.33841552    -0.65900
Ni773      Ni  0.17188914  0.20099452  0.31049273     1.26300
O774        O  0.24064230  0.15587160  0.27794845    -0.66100
O775        O  0.18080290  0.25292828  0.32201427    -0.78400
C776        C  0.09601627  0.21279046  0.28574378     0.85100
O777        O  0.12014821  0.22059337  0.30190285    -0.65600
Ni778      Ni  0.23728731  0.18690554  0.35098110     1.27400
Ni779      Ni  0.21779540  0.13022637  0.30571610     1.26100
H780        H  0.14640521  0.13209711  0.30699240     0.39600
O781        O  0.58266935  0.66388454  0.47225481    -0.80400
O782        O  0.65062056  0.50128271  0.42165709    -0.65000
O783        O  0.61488141  0.60385531  0.44617912    -1.11700
C784        C  0.51004857  0.59271472  0.39691689     1.06500
O785        O  0.63536170  0.52250011  0.38619493    -0.78300
O786        O  0.61942989  0.60130909  0.38825067    -0.65800
Ni787      Ni  0.61488700  0.61547485  0.47755931     1.34900
C788        C  0.60817847  0.63376825  0.39754060     0.85300
O789        O  0.68011863  0.55333184  0.45483950    -0.78800
O790        O  0.64880267  0.57088146  0.48615507    -0.89100
C791        C  0.65475387  0.49934103  0.39956095     0.84800
O792        O  0.57064379  0.58037500  0.47760319    -0.67300
O793        O  0.53860312  0.58357330  0.38356662    -0.86600
C794        C  0.57205445  0.54249963  0.47389169     0.85700
C795        C  0.68051430  0.55939431  0.47635565     1.07200
H796        H  0.56788532  0.52804445  0.42299099     0.39000
O797        O  0.58390743  0.55118001  0.41916384    -1.09200
O798        O  0.57766232  0.63480335  0.41009884    -0.65900
Ni799      Ni  0.56193357  0.59752650  0.43310622     1.26300
O800        O  0.59933217  0.52589675  0.46102704    -0.66100
O801        O  0.51249373  0.58896467  0.41843111    -0.78400
C802        C  0.55146775  0.67072041  0.46011153     0.85100
O803        O  0.53786014  0.64415434  0.44669033    -0.65600
Ni804      Ni  0.58762887  0.55368981  0.38681761     1.27400
Ni805      Ni  0.63208313  0.55162937  0.43632899     1.26100
H806        H  0.63084859  0.62418421  0.43875837     0.39600
O807        O  0.92892851  0.32714878  0.27214424    -0.80400
O808        O  0.76441299  0.39027974  0.32399608    -0.65000
O809        O  0.86960339  0.36121566  0.30129135    -1.11700
C810        C  0.86461788  0.25178241  0.34813696     1.06500
O811        O  0.77227963  0.36218929  0.35861691    -0.78300
O812        O  0.85081674  0.36092869  0.36043677    -0.65800
Ni813      Ni  0.88194447  0.36300045  0.26949204     1.34900
C814        C  0.88660017  0.35779245  0.35389500     0.85300
O815        O  0.81907091  0.42585105  0.29555921    -0.78800
O816        O  0.83942985  0.40073187  0.26251578    -0.89100
C817        C  0.75497420  0.38718252  0.34538954     0.84800
O818        O  0.84595021  0.31957856  0.26715038    -0.67300
O819        O  0.85033678  0.27751270  0.36191716    -0.86600
C820        C  0.80850382  0.31994196  0.27122714     0.85700
C821        C  0.82801106  0.43023550  0.27458635     1.07200
H822        H  0.79628106  0.30564749  0.31871428     0.39000
O823        O  0.81635759  0.32310170  0.32525434    -1.09200
O824        O  0.89723021  0.33025233  0.34008419    -0.65900
Ni825      Ni  0.86779742  0.30834656  0.31420200     1.26300
O826        O  0.79225701  0.34703990  0.28413780    -0.66100
O827        O  0.86350606  0.25684047  0.32686481    -0.78400
C828        C  0.94065339  0.30096560  0.28684551     0.85100
O829        O  0.91910510  0.29175242  0.30376348    -0.65600
Ni830      Ni  0.81157207  0.32055557  0.35783049     1.27400
Ni831      Ni  0.81638551  0.37477522  0.31083367     1.26100
H832        H  0.88716661  0.37931673  0.30917016     0.39600
C833        C  0.68232685  0.47033114  0.38689328    -0.04800
C834        C  0.68206273  0.42852841  0.39126765    -0.01900
C835        C  0.70312439  0.40125154  0.37680202     0.03100
C836        C  0.72510489  0.41490895  0.35728015    -0.04800
C837        C  0.72401099  0.45656026  0.35239363    -0.01900
C838        C  0.70296167  0.48373923  0.36679613     0.03100
C839        C  0.65773544  0.41313087  0.40978932     0.37700
C840        C  0.74551014  0.47216968  0.33276005     0.37700
C841        C  0.70216272  0.52593775  0.36021639     0.36100
C842        C  0.70112650  0.35855303  0.38191027     0.36100
N843        N  0.70108735  0.55922299  0.35433663    -0.38700
N844        N  0.69960056  0.32451481  0.38607932    -0.38700
N845        N  0.76238512  0.48507153  0.31712760    -0.38100
N846        N  0.63791639  0.40087751  0.42441653    -0.38100
C847        C  0.05608840  0.23544729  0.28516063    -0.04800
C848        C  0.03908283  0.24955186  0.30588874    -0.01900
C849        C  0.00359813  0.27292441  0.30588390     0.03100
C850        C  0.98155515  0.28059367  0.28546543    -0.04800
C851        C  0.99780543  0.26595114  0.26471606    -0.01900
C852        C  0.03485017  0.24416847  0.26450364     0.03100
C853        C  0.05670778  0.23874724  0.32788719     0.37700
C854        C  0.97585565  0.27208270  0.24353938     0.37700
C855        C  0.05100773  0.23108850  0.24282561     0.36100
C856        C  0.99101600  0.29024483  0.32738328     0.36100
N857        N  0.06374181  0.22070089  0.22545007    -0.38700
N858        N  0.98262124  0.30383000  0.34487545    -0.38700
N859        N  0.95837466  0.27677860  0.22658401    -0.38100
N860        N  0.06994834  0.23038061  0.34562500    -0.38100
C861        C  0.49262831  0.78958269  0.45606416    -0.04800
C862        C  0.46998625  0.75374447  0.45469227    -0.01900
C863        C  0.48859566  0.71530579  0.45690018     0.03100
C864        C  0.53069699  0.71165284  0.46048802    -0.04800
C865        C  0.55325017  0.74780563  0.46177015    -0.01900
C866        C  0.53439776  0.78612531  0.45968476     0.03100
C867        C  0.42732981  0.75648720  0.45018196     0.37700
C868        C  0.59648137  0.74593175  0.46389216     0.37700
C869        C  0.55849824  0.82205465  0.46149502     0.36100
C870        C  0.46390227  0.67955147  0.45529587     0.36100
N871        N  0.57885920  0.84995893  0.46324206    -0.38700
N872        N  0.44395848  0.65120835  0.45386187    -0.38700
N873        N  0.63099530  0.74459270  0.46546470    -0.38100
N874        N  0.39336685  0.75891531  0.44643510    -0.38100
C875        C  0.33959408  0.03516555  0.38916216    -0.04800
C876        C  0.30703128  0.02099448  0.37562647    -0.01900
C877        C  0.29139932  0.04393264  0.35683259     0.03100
C878        C  0.30756209  0.08201140  0.35105994    -0.04800
C879        C  0.34057493  0.09579528  0.36435981    -0.01900
C880        C  0.35621663  0.07282810  0.38308195     0.03100
C881        C  0.28871014  0.98281863  0.38143546     0.37700
C882        C  0.35864764  0.13418413  0.35868716     0.37700
C883        C  0.39005663  0.08791662  0.39603629     0.36100
C884        C  0.25759987  0.02878364  0.34381477     0.36100
N885        N  0.41691928  0.10016792  0.40644939    -0.38700
N886        N  0.23076991  0.01661260  0.33332667    -0.38700
N887        N  0.37316685  0.16475459  0.35410911    -0.38100
N888        N  0.27347289  0.95265167  0.38610234    -0.38100
C889        C  0.66718904  0.74084721  0.37657372    -0.04800
C890        C  0.68998165  0.70572975  0.37991177    -0.01900
C891        C  0.67137278  0.67113423  0.38870739     0.03100
C892        C  0.62985445  0.67172420  0.39333122    -0.04800
C893        C  0.60923807  0.70909167  0.39365313    -0.01900
C894        C  0.62792718  0.74345421  0.38505936     0.03100
C895        C  0.73174024  0.70461306  0.37334562     0.37700
C896        C  0.56820410  0.71282629  0.40147698     0.37700
C897        C  0.60590500  0.78125987  0.38408041     0.36100
C898        C  0.69520950  0.63568451  0.39385296     0.36100
N899        N  0.58770786  0.81087049  0.38324896    -0.38700
N900        N  0.71431373  0.60766431  0.39837081    -0.38700
N901        N  0.53538904  0.71675844  0.40727321    -0.38100
N902        N  0.76510208  0.70375033  0.36817601    -0.38100
C903        C  0.62502408  0.90612344  0.37518540    -0.04800
C904        C  0.61918309  0.90427806  0.39916770    -0.01900
C905        C  0.58764365  0.92616295  0.40869378     0.03100
C906        C  0.55980911  0.94489976  0.39409702    -0.04800
C907        C  0.57004631  0.95345227  0.37129441    -0.01900
C908        C  0.60401130  0.93525134  0.36209923     0.03100
C909        C  0.64276260  0.87788369  0.41377225     0.37700
C910        C  0.54450035  0.97827936  0.35683595     0.37700
C911        C  0.61708519  0.94685019  0.33939081     0.36100
C912        C  0.58280630  0.92953249  0.43325377     0.36100
N913        N  0.62709579  0.95774969  0.32148888    -0.38700
N914        N  0.57866407  0.93403667  0.45272129    -0.38700
N915        N  0.52413228  0.99808366  0.34531757    -0.38100
N916        N  0.66131099  0.85659440  0.42543942    -0.38100
C917        C  0.88758186  0.21733084  0.35670474    -0.04800
C918        C  0.92083400  0.22398612  0.37116539    -0.01900
C919        C  0.94572273  0.19176782  0.37720346     0.03100
C920        C  0.93446093  0.15222272  0.37131356    -0.04800
C921        C  0.90347947  0.14587394  0.35526051    -0.01900
C922        C  0.88011290  0.17859143  0.34785627     0.03100
C923        C  0.92902480  0.26354898  0.38042222     0.37700
C924        C  0.89437051  0.10592524  0.34691326     0.37700
C925        C  0.84670812  0.17190297  0.33233410     0.36100
C926        C  0.98273248  0.19904870  0.38974986     0.36100
N927        N  0.82001408  0.16645988  0.32003351    -0.38700
N928        N  0.01240926  0.20480181  0.39951060    -0.38700
N929        N  0.88658249  0.07450286  0.33974426    -0.38100
N930        N  0.93546631  0.29482749  0.38821432    -0.38100
C931        C  0.07092186  0.08737781  0.39089462    -0.04800
C932        C  0.06647930  0.09400716  0.36713665    -0.01900
C933        C  0.09312006  0.11928978  0.35558639     0.03100
C934        C  0.12800658  0.13344718  0.36678012    -0.04800
C935        C  0.13477390  0.12261369  0.39012009    -0.01900
C936        C  0.10527279  0.10134058  0.40233899     0.03100
C937        C  0.03339102  0.07641997  0.35434225     0.37700
C938        C  0.17082316  0.13496298  0.40217358     0.37700
C939        C  0.11005332  0.09393872  0.42670352     0.36100
C940        C  0.08276444  0.13099067  0.33236340     0.36100
N941        N  0.11376860  0.08818737  0.44614732    -0.38700
N942        N  0.07200424  0.13939700  0.31410928    -0.38700
N943        N  0.19946347  0.14482474  0.41186339    -0.38100
N944        N  0.00782754  0.06241277  0.34357319    -0.38100
C945        C  0.86254109  0.96867451  0.38760372    -0.04800
C946        C  0.83210413  0.94467616  0.39715757    -0.01900
C947        C  0.80729269  0.92041747  0.38296159     0.03100
C948        C  0.80859954  0.92318427  0.35842217    -0.04800
C949        C  0.84053454  0.94504234  0.34889607    -0.01900
C950        C  0.86824566  0.96582665  0.36326979     0.03100
C951        C  0.82513232  0.94548948  0.42163430     0.37700
C952        C  0.84499671  0.94647103  0.32424347     0.37700
C953        C  0.90341378  0.98307146  0.35260410     0.36100
C954        C  0.78135669  0.89142995  0.39416255     0.36100
N955        N  0.93152806  0.99636002  0.34391824    -0.38700
N956        N  0.76121511  0.86820633  0.40337058    -0.38700
N957        N  0.84860438  0.94758999  0.30456603    -0.38100
N958        N  0.81919317  0.94627889  0.44111989    -0.38100
C959        C  0.48194949  0.73528981  0.28932979    -0.04800
C960        C  0.51604556  0.71852253  0.30020471    -0.01900
C961        C  0.55208765  0.74102121  0.30252380     0.03100
C962        C  0.55548300  0.78012177  0.29289628    -0.04800
C963        C  0.52265774  0.79509270  0.27990951    -0.01900
C964        C  0.48657269  0.77252260  0.27778642     0.03100
C965        C  0.51452147  0.67695620  0.30769774     0.37700
C966        C  0.52564684  0.83428779  0.26907286     0.37700
C967        C  0.45609039  0.78544156  0.26164841     0.36100
C968        C  0.58615242  0.72327340  0.31424382     0.36100
N969        N  0.43252369  0.79554257  0.24820489    -0.38700
N970        N  0.61335261  0.70898445  0.32355990    -0.38700
N971        N  0.52812704  0.86565466  0.26051831    -0.38100
N972        N  0.51277282  0.64332411  0.31280211    -0.38100
C973        C  0.34964898  0.82004282  0.34354123    -0.04800
C974        C  0.38281516  0.83859784  0.33294754    -0.01900
C975        C  0.40752698  0.86446101  0.34567191     0.03100
C976        C  0.39671826  0.87413554  0.36823125    -0.04800
C977        C  0.35838937  0.86354963  0.37637643    -0.01900
C978        C  0.33474558  0.83656464  0.36395607     0.03100
C979        C  0.39070044  0.83217167  0.30898680     0.37700
C980        C  0.34289196  0.88033841  0.39742600     0.37700
C981        C  0.29564722  0.82504003  0.37249829     0.36100
C982        C  0.44464874  0.87919978  0.33598078     0.36100
N983        N  0.26457134  0.81582141  0.37939574    -0.38700
N984        N  0.47423567  0.89085306  0.32818094    -0.38700
N985        N  0.32936257  0.89350312  0.41395928    -0.38100
N986        N  0.39572513  0.82798110  0.28961318    -0.38100
C987        C  0.41268810  0.66485988  0.37302725    -0.04800
C988        C  0.45269709  0.67596956  0.36848707    -0.01900
C989        C  0.48372328  0.64944173  0.37392286     0.03100
C990        C  0.47609352  0.61513706  0.38752108    -0.04800
C991        C  0.43692950  0.60609811  0.39445472    -0.01900
C992        C  0.40495229  0.62995273  0.38657658     0.03100
C993        C  0.46256648  0.71508937  0.35876692     0.37700
C994        C  0.42938317  0.57104300  0.40875861     0.37700
C995        C  0.36455448  0.61728945  0.39215384     0.36100
C996        C  0.52336285  0.65756572  0.36502949     0.36100
N997        N  0.33256688  0.60672688  0.39671579    -0.38700
N998        N  0.55456096  0.66375717  0.35731103    -0.38700
N999        N  0.42343942  0.54318829  0.42019842    -0.38100
N1000       N  0.47058694  0.74630082  0.35122272    -0.38100
C1001       C  0.99489151  0.21878639  0.46117994    -0.04800
C1002       C  0.03343881  0.22423209  0.47071734    -0.01900
C1003       C  0.05288866  0.26239080  0.46978539     0.03100
C1004       C  0.03431032  0.29625206  0.45899780    -0.04800
C1005       C  0.99529083  0.29034938  0.44957744    -0.01900
C1006       C  0.97580308  0.25231483  0.45097103     0.03100
C1007       C  0.05325118  0.19024632  0.48156113     0.37700
C1008       C  0.97442300  0.32322623  0.43838966     0.37700
C1009       C  0.93573166  0.24743297  0.44169900     0.36100
C1010       C  0.09301321  0.26583401  0.47913751     0.36100
N1011       N  0.90366544  0.24334640  0.43449816    -0.38700
N1012       N  0.12506765  0.26848442  0.48658465    -0.38700
N1013       N  0.95727454  0.34901725  0.42928657    -0.38100
N1014       N  0.06901171  0.16318942  0.49031158    -0.38100
C1015       C  0.16913103  0.29445346  0.35370328    -0.04800
C1016       C  0.15157085  0.28923560  0.37529832    -0.01900
C1017       C  0.13694114  0.32216750  0.38716669     0.03100
C1018       C  0.13261060  0.36002277  0.37604858    -0.04800
C1019       C  0.14938704  0.36519411  0.35385921    -0.01900
C1020       C  0.16796706  0.33245400  0.34287966     0.03100
C1021       C  0.14584933  0.24953663  0.38526626     0.37700
C1022       C  0.14946672  0.40407143  0.34242537     0.37700
C1023       C  0.18559900  0.33792345  0.32042369     0.36100
C1024       C  0.12961493  0.31610491  0.41141108     0.36100
N1025       N  0.19935224  0.34229288  0.30245348    -0.38700
N1026       N  0.12536045  0.30923931  0.43064748    -0.38700
N1027       N  0.15013723  0.43502298  0.33326897    -0.38100
N1028       N  0.13988753  0.21883951  0.39393810    -0.38100
C1029       C  0.91673168  0.38601286  0.36338644    -0.04800
C1030       C  0.91170673  0.40248654  0.38563479    -0.01900
C1031       C  0.94219233  0.42594653  0.39540229     0.03100
C1032       C  0.97834055  0.43118167  0.38368693    -0.04800
C1033       C  0.98196152  0.41865570  0.36082824    -0.01900
C1034       C  0.95098384  0.39692812  0.35052884     0.03100
C1035       C  0.87653421  0.39388398  0.39929253     0.37700
C1036       C  0.01885601  0.42540338  0.34820062     0.37700
C1037       C  0.95580124  0.38664407  0.32666741     0.36100
C1038       C  0.93669018  0.44434938  0.41764489     0.36100
N1039       N  0.96244869  0.38048817  0.30760345    -0.38700
N1040       N  0.93171086  0.45938220  0.43521811    -0.38700
N1041       N  0.04805160  0.43062761  0.33806108    -0.38100
N1042       N  0.84857712  0.38719143  0.41026577    -0.38100
C1043       C  0.23371528  0.59548710  0.36327716    -0.04800
C1044       C  0.24343546  0.55409954  0.36504730    -0.01900
C1045       C  0.22417120  0.52885816  0.38139829     0.03100
C1046       C  0.19486188  0.54416806  0.39665058    -0.04800
C1047       C  0.18637472  0.58566063  0.39567247    -0.01900
C1048       C  0.20529609  0.61097116  0.37921157     0.03100
C1049       C  0.27448468  0.53736806  0.35073240     0.37700
C1050       C  0.15691198  0.60212101  0.41115697     0.37700
C1051       C  0.19477108  0.65331336  0.37859267     0.36100
C1052       C  0.23444584  0.48642870  0.38249840     0.36100
N1053       N  0.18651612  0.68713519  0.37824142    -0.38700
N1054       N  0.24244682  0.45256781  0.38341569    -0.38700
N1055       N  0.13349786  0.61516284  0.42361502    -0.38100
N1056       N  0.29929006  0.52336068  0.33955938    -0.38100
C1057       C  0.32080825  0.40565254  0.86749845    -0.04800
C1058       C  0.32172645  0.44773711  0.86361860    -0.01900
C1059       C  0.34070712  0.47442205  0.87946027     0.03100
C1060       C  0.36092592  0.46019459  0.89949393    -0.04800
C1061       C  0.36091561  0.41819947  0.90326063    -0.01900
C1062       C  0.34135548  0.39138021  0.88760653     0.03100
C1063       C  0.30389889  0.46417816  0.84300902     0.37700
C1064       C  0.38220550  0.40232805  0.92299792     0.37700
C1065       C  0.34427514  0.34845605  0.89185518     0.36100
C1066       C  0.33947136  0.51736006  0.87491958     0.36100
N1067       N  0.34667816  0.31419531  0.89523194    -0.38700
N1068       N  0.33829283  0.55152501  0.87110055    -0.38700
N1069       N  0.39908157  0.38965229  0.93881009    -0.38100
N1070       N  0.29081818  0.47804281  0.82640258    -0.38100
C1071       C  0.54866298  0.79377553  0.96532259    -0.04800
C1072       C  0.55228269  0.76714396  0.94678153    -0.01900
C1073       C  0.52886174  0.73164628  0.94529187     0.03100
C1074       C  0.50402063  0.71902174  0.96368960    -0.04800
C1075       C  0.50222438  0.74491431  0.98310317    -0.01900
C1076       C  0.52388160  0.78207193  0.98370200     0.03100
C1077       C  0.58324772  0.77455752  0.93014933     0.37700
C1078       C  0.47878589  0.73332977  0.00282611     0.37700
C1079       C  0.52161364  0.80786646  0.00356294     0.36100
C1080       C  0.52963602  0.70941336  0.92408015     0.36100
N1081       N  0.52015243  0.82840875  0.01947230    -0.38700
N1082       N  0.53074819  0.69227868  0.90693606    -0.38700
N1083       N  0.46009515  0.72418665  0.01862363    -0.38100
N1084       N  0.60949041  0.77986926  0.91774652    -0.38100
C1085       C  0.99154192  0.23714175  0.79376668    -0.04800
C1086       C  0.00193519  0.26705058  0.81026022    -0.01900
C1087       C  0.03774989  0.28990037  0.80830724     0.03100
C1088       C  0.06489629  0.28340115  0.79034075    -0.04800
C1089       C  0.05368661  0.25623172  0.77292684    -0.01900
C1090       C  0.01774618  0.23311781  0.77461281     0.03100
C1091       C  0.97606193  0.27533911  0.82948312     0.37700
C1092       C  0.07936826  0.25189518  0.75318974     0.37700
C1093       C  0.00893335  0.20443581  0.75666455     0.36100
C1094       C  0.04595753  0.32210691  0.82428357     0.36100
N1095       N  0.00216059  0.18168049  0.74221659    -0.38700
N1096       N  0.05217124  0.34873133  0.83645395    -0.38700
N1097       N  0.09953825  0.24861518  0.73727477    -0.38100
N1098       N  0.95617679  0.28236681  0.84509900    -0.38100
C1099       C  0.74257247  0.08502285  0.85937395    -0.04800
C1100       C  0.73332115  0.04472001  0.85437220    -0.01900
C1101       C  0.71052999  0.02098495  0.86992286     0.03100
C1102       C  0.69633619  0.03687720  0.89114517    -0.04800
C1103       C  0.70444645  0.07767499  0.89574725    -0.01900
C1104       C  0.72735084  0.10138576  0.88018071     0.03100
C1105       C  0.74844074  0.02711411  0.83346213     0.37700
C1106       C  0.68735352  0.09593347  0.91593542     0.37700
C1107       C  0.73473724  0.14331989  0.88554762     0.36100
C1108       C  0.70148970  0.97985009  0.86356641     0.36100
N1109       N  0.74066298  0.17674190  0.88988204    -0.38700
N1110       N  0.69439892  0.94740664  0.85772027    -0.38700
N1111       N  0.67339710  0.11049508  0.93197417    -0.38100
N1112       N  0.76050701  0.01312520  0.81676638    -0.38100
C1113       C  0.90156283  0.35499880  0.88422682    -0.04800
C1114       C  0.88550101  0.32367073  0.89793889    -0.01900
C1115       C  0.86042166  0.29487741  0.88798101     0.03100
C1116       C  0.85655239  0.29351460  0.86407571    -0.04800
C1117       C  0.86986936  0.32564630  0.85052007    -0.01900
C1118       C  0.89230620  0.35659513  0.86051132     0.03100
C1119       C  0.89634438  0.31831234  0.92180625     0.37700
C1120       C  0.86040355  0.32656993  0.82628039     0.37700
C1121       C  0.90894666  0.38761673  0.84581408     0.36100
C1122       C  0.83972935  0.26571281  0.90225373     0.36100
N1123       N  0.92227749  0.41213577  0.83398905    -0.38700
N1124       N  0.82262765  0.24286906  0.91355881    -0.38700
N1125       N  0.85229882  0.32785282  0.80702620    -0.38100
N1126       N  0.90448882  0.31165014  0.94072758    -0.38100
C1127       C  0.06521213  0.38902899  0.88957116    -0.04800
C1128       C  0.09989030  0.41073444  0.88401508    -0.01900
C1129       C  0.13385330  0.39005609  0.87654404     0.03100
C1130       C  0.13290715  0.34772131  0.87496399    -0.04800
C1131       C  0.09888575  0.32583507  0.88167835    -0.01900
C1132       C  0.06467369  0.34656549  0.88873142     0.03100
C1133       C  0.10043246  0.45425910  0.88586652     0.37700
C1134       C  0.09904024  0.28211200  0.88111534     0.37700
C1135       C  0.02890084  0.32404869  0.89456668     0.36100
C1136       C  0.16905029  0.41240487  0.86948456     0.36100
N1137       N  0.00090118  0.30517722  0.89904103    -0.38700
N1138       N  0.19720402  0.43000179  0.86383158    -0.38700
N1139       N  0.09915922  0.24729224  0.88078395    -0.38100
N1140       N  0.10083254  0.48895773  0.88738621    -0.38100
C1141       C  0.63752603  0.62879177  0.87842223    -0.04800
C1142       C  0.62338374  0.59110051  0.87112129    -0.01900
C1143       C  0.59459228  0.57090771  0.88420656     0.03100
C1144       C  0.57939264  0.58908722  0.90415613    -0.04800
C1145       C  0.59968346  0.62270229  0.91352932    -0.01900
C1146       C  0.62810414  0.64310566  0.90031175     0.03100
C1147       C  0.63870271  0.57270597  0.85050024     0.37700
C1148       C  0.59207755  0.63668049  0.93653853     0.37700
C1149       C  0.64766093  0.67890651  0.90914184     0.36100
C1150       C  0.58154099  0.53095733  0.87758667     0.36100
N1151       N  0.66372495  0.70710404  0.91620720    -0.38700
N1152       N  0.57149477  0.49889365  0.87249320    -0.38700
N1153       N  0.58724001  0.64841876  0.95491331    -0.38100
N1154       N  0.65080264  0.55709982  0.83428604    -0.38100
C1155       C  0.66482126  0.78985073  0.86601250    -0.04800
C1156       C  0.62256039  0.79152830  0.86638277    -0.01900
C1157       C  0.60338567  0.82586099  0.87472600     0.03100
C1158       C  0.62642233  0.85684652  0.88435136    -0.04800
C1159       C  0.66859087  0.85419781  0.88519037    -0.01900
C1160       C  0.68787684  0.82085851  0.87565964     0.03100
C1161       C  0.59857118  0.75683295  0.86019147     0.37700
C1162       C  0.69202143  0.88489685  0.89667792     0.37700
C1163       C  0.73124126  0.81826486  0.87600501     0.36100
C1164       C  0.55997644  0.82852514  0.87447876     0.36100
N1165       N  0.76581242  0.81624277  0.87638961    -0.38700
N1166       N  0.52542650  0.83086067  0.87452048    -0.38700
N1167       N  0.71064694  0.90943927  0.90580884    -0.38100
N1168       N  0.57841763  0.72956345  0.85591083    -0.38100
C1169       C  0.81901754  0.58929164  0.85661337    -0.04800
C1170       C  0.86000483  0.59888866  0.85922168    -0.01900
C1171       C  0.88429885  0.57886888  0.87593262     0.03100
C1172       C  0.86836619  0.54830270  0.89038958    -0.04800
C1173       C  0.82749384  0.53842351  0.88756196    -0.01900
C1174       C  0.80305116  0.55912489  0.87128173     0.03100
C1175       C  0.87716509  0.62975933  0.84471186     0.37700
C1176       C  0.81082953  0.50545590  0.90074705     0.37700
C1177       C  0.76063925  0.55014944  0.87023036     0.36100
C1178       C  0.92600139  0.59010537  0.87844341     0.36100
N1179       N  0.72678379  0.54296386  0.86969512    -0.38700
N1180       N  0.95923561  0.59921796  0.88053611    -0.38700
N1181       N  0.79771767  0.47893324  0.91116953    -0.38100
N1182       N  0.89092664  0.65417564  0.83297999    -0.38100
C1183       C  0.06158121  0.22449963  0.96551509    -0.04800
C1184       C  0.02656098  0.22840192  0.97889521    -0.01900
C1185       C  0.00358189  0.26468140  0.97849844     0.03100
C1186       C  0.01685858  0.29893932  0.96605256    -0.04800
C1187       C  0.05507027  0.29619415  0.95536302    -0.01900
C1188       C  0.07606644  0.25907571  0.95422731     0.03100
C1189       C  0.01428133  0.19508682  0.99328573     0.37700
C1190       C  0.07481679  0.33207622  0.94690195     0.37700
C1191       C  0.11372797  0.25683157  0.94205033     0.36100
C1192       C  0.96591367  0.26610607  0.99058734     0.36100
N1193       N  0.14383967  0.25510088  0.93242260    -0.38700
N1194       N  0.93583027  0.26710976  0.00027614    -0.38700
N1195       N  0.09171901  0.36036487  0.94059615    -0.38100
N1196       N  0.00473550  0.16868003  0.00501763    -0.38100
C1197       C  0.97875873  0.09054639  0.90529492    -0.04800
C1198       C  0.95798895  0.12193736  0.91630194    -0.01900
C1199       C  0.92899816  0.14409460  0.90421946     0.03100
C1200       C  0.91690104  0.13120870  0.88233868    -0.04800
C1201       C  0.93104440  0.09419275  0.87377140    -0.01900
C1202       C  0.96323923  0.07474206  0.88463649     0.03100
C1203       C  0.96712673  0.13194870  0.93986402     0.37700
C1204       C  0.91302199  0.07634848  0.85354189     0.37700
C1205       C  0.98175614  0.04062466  0.87343187     0.36100
C1206       C  0.91523886  0.18190632  0.91353200     0.36100
N1207       N  0.99654766  0.01363587  0.86431356    -0.38700
N1208       N  0.90594781  0.21222959  0.92153529    -0.38700
N1209       N  0.89869245  0.06131307  0.83766618    -0.38100
N1210       N  0.97406831  0.13935086  0.95877535    -0.38100
C1211       C  0.14207909  0.13179409  0.87413980    -0.04800
C1212       C  0.12370368  0.14914427  0.85496671    -0.01900
C1213       C  0.14456346  0.17811048  0.84231977     0.03100
C1214       C  0.18326548  0.19060491  0.84961328    -0.04800
C1215       C  0.20373557  0.16789528  0.86641888    -0.01900
C1216       C  0.18295093  0.13860205  0.87886774     0.03100
C1217       C  0.08209495  0.14008392  0.84961706     0.37700
C1218       C  0.24569403  0.17546136  0.87133907     0.37700
C1219       C  0.20301805  0.11686579  0.89723855     0.36100
C1220       C  0.12438211  0.19538125  0.82271603     0.36100
N1221       N  0.21920706  0.09969473  0.91186439    -0.38700
N1222       N  0.10590830  0.20624886  0.80711530    -0.38700
N1223       N  0.27916128  0.18142680  0.87522301    -0.38100
N1224       N  0.04893728  0.13303254  0.84545477    -0.38100
C1225       C  0.47067199  0.92770874  0.90663757    -0.04800
C1226       C  0.45007467  0.89556877  0.91726949    -0.01900
C1227       C  0.42225459  0.87350510  0.90450644     0.03100
C1228       C  0.41264765  0.88596907  0.88201021    -0.04800
C1229       C  0.42655064  0.92327361  0.87362458    -0.01900
C1230       C  0.45549260  0.94438461  0.88607714     0.03100
C1231       C  0.45866763  0.88347169  0.94070381     0.37700
C1232       C  0.41157970  0.93981279  0.85216099     0.37700
C1233       C  0.47088633  0.98221543  0.87721578     0.36100
C1234       C  0.40654584  0.83619122  0.91388993     0.36100
N1235       N  0.48327198  0.01220954  0.87004326    -0.38700
N1236       N  0.39423987  0.80639560  0.92136599    -0.38700
N1237       N  0.39960597  0.95356375  0.83522533    -0.38100
N1238       N  0.46499964  0.87382252  0.95943378    -0.38100
C1239       C  0.48669193  0.78310457  0.79216614    -0.04800
C1240       C  0.48756909  0.74346518  0.78339396    -0.01900
C1241       C  0.52312705  0.71976399  0.78468450     0.03100
C1242       C  0.55915019  0.73582444  0.79390322    -0.04800
C1243       C  0.55854988  0.77668984  0.80121944    -0.01900
C1244       C  0.52263171  0.79953930  0.80082128     0.03100
C1245       C  0.45139471  0.72642512  0.77367780     0.37700
C1246       C  0.59504321  0.79656784  0.80845893     0.37700
C1247       C  0.52277437  0.84062231  0.80918224     0.36100
C1248       C  0.52176090  0.67805364  0.77760409     0.36100
N1249       N  0.52291685  0.87335085  0.81586086    -0.38700
N1250       N  0.52053441  0.64467871  0.77208156    -0.38700
N1251       N  0.62360880  0.81367711  0.81402398    -0.38100
N1252       N  0.42268922  0.71280577  0.76571186    -0.38100
C1253       C  0.38689282  0.71776101  0.86539692    -0.04800
C1254       C  0.36251205  0.68863792  0.87634312    -0.01900
C1255       C  0.38032441  0.65514571  0.88698940     0.03100
C1256       C  0.42146911  0.64788546  0.88414335    -0.04800
C1257       C  0.44496312  0.67382385  0.87098549    -0.01900
C1258       C  0.42882336  0.71025833  0.86329491     0.03100
C1259       C  0.31922941  0.69227286  0.87656041     0.37700
C1260       C  0.48569244  0.66260551  0.86508737     0.37700
C1261       C  0.45670491  0.74022552  0.85477745     0.36100
C1262       C  0.35658724  0.62927075  0.90166965     0.36100
N1263       N  0.47965778  0.76370436  0.84839350    -0.38700
N1264       N  0.33753753  0.60921491  0.91362312    -0.38700
N1265       N  0.51786569  0.65338384  0.86007280    -0.38100
N1266       N  0.28468821  0.69483884  0.87657764    -0.38100
C1267       C  0.24154886  0.92449106  0.86396402    -0.04800
C1268       C  0.19940874  0.92198987  0.86328689    -0.01900
C1269       C  0.17546635  0.94355896  0.87927274     0.03100
C1270       C  0.19294459  0.96785139  0.89677350    -0.04800
C1271       C  0.23510832  0.97031381  0.89750146    -0.01900
C1272       C  0.25899891  0.94927224  0.88127394     0.03100
C1273       C  0.18059179  0.89584391  0.84664223     0.37700
C1274       C  0.25413662  0.99554945  0.91456672     0.37700
C1275       C  0.30210669  0.95374948  0.88235318     0.36100
C1276       C  0.13226104  0.94022365  0.87783488     0.36100
N1277       N  0.33642408  0.95784202  0.88349118    -0.38700
N1278       N  0.09777145  0.93773758  0.87667097    -0.38700
N1279       N  0.26956142  0.01551385  0.92818219    -0.38100
N1280       N  0.16566165  0.87486037  0.83335690    -0.38100
C1281       C  0.00086598  0.49369726  0.98571064    -0.04800
C1282       C  0.03848914  0.47552273  0.99101934    -0.01900
C1283       C  0.06971151  0.49801940  0.00100009     0.03100
C1284       C  0.06489574  0.53959386  0.00498239    -0.04800
C1285       C  0.02861979  0.55846453  0.99759512    -0.01900
C1286       C  0.99624550  0.53534511  0.98930857     0.03100
C1287       C  0.04592610  0.43328453  0.98646472     0.37700
C1288       C  0.02421202  0.60186981  0.99760297     0.37700
C1289       C  0.95750722  0.55437998  0.98586933     0.36100
C1290       C  0.10736047  0.47806058  0.00641224     0.36100
N1291       N  0.92654867  0.56950299  0.98344567    -0.38700
N1292       N  0.13720709  0.46198479  0.01076192    -0.38700
N1293       N  0.02102402  0.63649934  0.99671071    -0.38100
N1294       N  0.05248759  0.39958727  0.98338128    -0.38100
C1295       C  0.23994781  0.56319571  0.01795522    -0.04800
C1296       C  0.27704270  0.56363809  0.02960304    -0.01900
C1297       C  0.31325895  0.56105134  0.01725155     0.03100
C1298       C  0.31302904  0.55883390  0.99286879    -0.04800
C1299       C  0.27591572  0.55186497  0.98176198    -0.01900
C1300       C  0.23972839  0.55403987  0.99420987     0.03100
C1301       C  0.27854192  0.56825174  0.05425180     0.37700
C1302       C  0.27441699  0.54295052  0.95748593     0.37700
C1303       C  0.20210086  0.54660166  0.98241090     0.36100
C1304       C  0.35071304  0.56064359  0.03001422     0.36100
N1305       N  0.17221004  0.54059424  0.97292712    -0.38700
N1306       N  0.38042375  0.56042661  0.04029863    -0.38700
N1307       N  0.27320127  0.53541255  0.93817516    -0.38100
N1308       N  0.28064879  0.57155362  0.07392003    -0.38100
C1309       C  0.28521840  0.28551428  0.23465596    -0.04800
C1310       C  0.25375497  0.26641444  0.22274044    -0.01900
C1311       C  0.23650991  0.23081274  0.23162013     0.03100
C1312       C  0.25021902  0.21389347  0.25266915    -0.04800
C1313       C  0.28378832  0.23117960  0.26350221    -0.01900
C1314       C  0.29940016  0.26795790  0.25545305     0.03100
C1315       C  0.23914621  0.28272763  0.20119760     0.37700
C1316       C  0.30344001  0.21089525  0.28251735     0.37700
C1317       C  0.32925981  0.28844994  0.26933675     0.36100
C1318       C  0.20585329  0.21038872  0.21833060     0.36100
N1319       N  0.35289789  0.30476066  0.28047866    -0.38700
N1320       N  0.18157916  0.19402864  0.20767162    -0.38700
N1321       N  0.31999002  0.19458001  0.29734259    -0.38100
N1322       N  0.22680420  0.29528006  0.18404733    -0.38100
C1323       C  0.32813255  0.46365600  0.24793176    -0.04800
C1324       C  0.36438015  0.47289995  0.25952326    -0.01900
C1325       C  0.36726145  0.50748775  0.27334045     0.03100
C1326       C  0.33401126  0.53311945  0.27594868    -0.04800
C1327       C  0.29720185  0.52288441  0.26550013    -0.01900
C1328       C  0.29415447  0.48803558  0.25169257     0.03100
C1329       C  0.39947332  0.44767867  0.25659019     0.37700
C1330       C  0.26287786  0.54902555  0.26839764     0.37700
C1331       C  0.25581603  0.47644891  0.24212581     0.36100
C1332       C  0.40505800  0.51764911  0.28425187     0.36100
N1333       N  0.22502246  0.46687557  0.23482485    -0.38700
N1334       N  0.43517480  0.52584737  0.29292006    -0.38700
N1335       N  0.23561361  0.57006114  0.27075361    -0.38100
N1336       N  0.42739993  0.42749647  0.25434217    -0.38100
C1337       C  0.22694922  0.42997810  0.14204686    -0.04800
C1338       C  0.21688651  0.41430855  0.11995365    -0.01900
C1339       C  0.19241072  0.43628671  0.10411779     0.03100
C1340       C  0.17711469  0.47443329  0.10984956    -0.04800
C1341       C  0.18640671  0.48951359  0.13219394    -0.01900
C1342       C  0.21121553  0.46779154  0.14784749     0.03100
C1343       C  0.23194833  0.37516588  0.11326394     0.37700
C1344       C  0.17120213  0.52819771  0.13950053     0.37700
C1345       C  0.22271907  0.48584973  0.16943979     0.36100
C1346       C  0.18190348  0.41898963  0.08217735     0.36100
N1347       N  0.23204571  0.50075233  0.18650359    -0.38700
N1348       N  0.17334629  0.40512168  0.06469245    -0.38700
N1349       N  0.15972630  0.55861566  0.14642434    -0.38100
N1350       N  0.24396631  0.34403420  0.10775267    -0.38100
C1351       C  0.50369449  0.01936143  0.01683304    -0.04800
C1352       C  0.52311499  0.98645698  0.02740961    -0.01900
C1353       C  0.55731216  0.96899608  0.01718300     0.03100
C1354       C  0.57271729  0.98409008  0.99608384    -0.04800
C1355       C  0.55465335  0.01853576  0.98636692    -0.01900
C1356       C  0.51904802  0.03411086  0.99566666     0.03100
C1357       C  0.50840692  0.97055075  0.04892341     0.37700
C1358       C  0.57292193  0.03928559  0.96720231     0.37700
C1359       C  0.49753263  0.06477515  0.98268546     0.36100
C1360       C  0.57784608  0.93662171  0.02921887     0.36100
N1361       N  0.48046259  0.08915142  0.97231560    -0.38700
N1362       N  0.59423173  0.91088082  0.03884804    -0.38700
N1363       N  0.58746439  0.05679052  0.95223924    -0.38100
N1364       N  0.49681893  0.95737912  0.06600921    -0.38100
C1365       C  0.32517325  0.06373274  0.01350211    -0.04800
C1366       C  0.31152712  0.10056477  0.00410141    -0.01900
C1367       C  0.27511588  0.10218145  0.99199312     0.03100
C1368       C  0.25205935  0.06706812  0.98910342    -0.04800
C1369       C  0.26622088  0.02990058  0.99768638    -0.01900
C1370       C  0.30261721  0.02830858  0.01015657     0.03100
C1371       C  0.33420648  0.13732008  0.00761943     0.37700
C1372       C  0.24316313  0.99360093  0.99388513     0.37700
C1373       C  0.31707442  0.99037815  0.01934335     0.36100
C1374       C  0.26124330  0.14014445  0.98238278     0.36100
N1375       N  0.32872939  0.96017879  0.02673978    -0.38700
N1376       N  0.25004245  0.17024478  0.97463148    -0.38700
N1377       N  0.22483619  0.96461051  0.99069948    -0.38100
N1378       N  0.35215956  0.16666505  0.01043344    -0.38100
C1379       C  0.39379696  0.16405908  0.11507672    -0.04800
C1380       C  0.38575756  0.19721281  0.10031627    -0.01900
C1381       C  0.36488301  0.23078818  0.10843456     0.03100
C1382       C  0.35293889  0.23198549  0.13139437    -0.04800
C1383       C  0.35674025  0.19767147  0.14544601    -0.01900
C1384       C  0.37720726  0.16369481  0.13739732     0.03100
C1385       C  0.39926916  0.19841401  0.07683996     0.37700
C1386       C  0.34197395  0.19853711  0.16879625     0.37700
C1387       C  0.38383536  0.13019183  0.15300809     0.36100
C1388       C  0.35841020  0.26535793  0.09351075     0.36100
N1389       N  0.38897253  0.10362859  0.16556437    -0.38700
N1390       N  0.35327872  0.29258546  0.08143636    -0.38700
N1391       N  0.33051898  0.19949841  0.18743753    -0.38100
N1392       N  0.40869387  0.20182548  0.05792775    -0.38100
C1393       C  0.25533084  0.78189499  0.23987442    -0.04800
C1394       C  0.23695735  0.75827445  0.25745660    -0.01900
C1395       C  0.25540046  0.72293147  0.26614208     0.03100
C1396       C  0.29441095  0.71198398  0.25922305    -0.04800
C1397       C  0.31284416  0.73562290  0.24167553    -0.01900
C1398       C  0.29382370  0.77023458  0.23243584     0.03100
C1399       C  0.19955237  0.77078600  0.26785043     0.37700
C1400       C  0.35137559  0.72428829  0.23222526     0.37700
C1401       C  0.31479614  0.79382196  0.21530780     0.36100
C1402       C  0.23334819  0.69795584  0.28217132     0.36100
N1403       N  0.33199153  0.81248827  0.20179898    -0.38700
N1404       N  0.21536827  0.67812865  0.29478681    -0.38700
N1405       N  0.38213749  0.71564044  0.22467953    -0.38100
N1406       N  0.16986099  0.78050964  0.27630923    -0.38100
C1407       C  0.21357490  0.96636920  0.23185923    -0.04800
C1408       C  0.24467641  0.97929289  0.24647770    -0.01900
C1409       C  0.24057833  0.01539151  0.25897332     0.03100
C1410       C  0.20506106  0.03840379  0.25702753    -0.04800
C1411       C  0.17439402  0.02563857  0.24184048    -0.01900
C1412       C  0.17907058  0.99024860  0.22901581     0.03100
C1413       C  0.28114878  0.95582703  0.24825699     0.37700
C1414       C  0.13698658  0.04778613  0.24010844     0.37700
C1415       C  0.14794029  0.97798157  0.21305127     0.36100
C1416       C  0.27328610  0.02926259  0.27331164     0.36100
N1417       N  0.12326410  0.96839271  0.20021661    -0.38700
N1418       N  0.29942027  0.04038958  0.28471316    -0.38700
N1419       N  0.10712391  0.06532941  0.23878004    -0.38100
N1420       N  0.31044079  0.93733878  0.24953929    -0.38100
C1421       C  0.16798132  0.70747283  0.14265812    -0.04800
C1422       C  0.18851359  0.67791234  0.13020201    -0.01900
C1423       C  0.16672363  0.64725401  0.11947622     0.03100
C1424       C  0.12482005  0.64582856  0.12184889    -0.04800
C1425       C  0.10496057  0.67250282  0.13625085    -0.01900
C1426       C  0.12593091  0.70495223  0.14543575     0.03100
C1427       C  0.23170908  0.67958631  0.12799941     0.37700
C1428       C  0.06312772  0.66617788  0.14190976     0.37700
C1429       C  0.10252814  0.73803995  0.15418085     0.36100
C1430       C  0.18734902  0.61694585  0.10629840     0.36100
N1431       N  0.08116592  0.76377966  0.15937233    -0.38700
N1432       N  0.20389421  0.59223645  0.09621524    -0.38700
N1433       N  0.03009933  0.66088479  0.14694391    -0.38100
N1434       N  0.26615405  0.68087609  0.12622333    -0.38100
C1435       C  0.32098823  0.91245505  0.14305755    -0.04800
C1436       C  0.34816128  0.89809007  0.12618387    -0.01900
C1437       C  0.36865900  0.92493121  0.11114874     0.03100
C1438       C  0.36310492  0.96687601  0.11270917    -0.04800
C1439       C  0.33606623  0.98130241  0.12956123    -0.01900
C1440       C  0.31569663  0.95459251  0.14466566     0.03100
C1441       C  0.35605025  0.85529178  0.12466699     0.37700
C1442       C  0.32826125  0.02419321  0.13099630     0.37700
C1443       C  0.28853799  0.97085458  0.16153408     0.36100
C1444       C  0.39596328  0.90937488  0.09418456     0.36100
N1445       N  0.26725510  0.98440527  0.17502029    -0.38700
N1446       N  0.41755562  0.89704661  0.08048503    -0.38700
N1447       N  0.32168235  0.05832599  0.13204199    -0.38100
N1448       N  0.36244542  0.82113440  0.12354955    -0.38100
C1449       C  0.74531752  0.21582701  0.24334155    -0.04800
C1450       C  0.72840831  0.23859583  0.26151670    -0.01900
C1451       C  0.74745153  0.27375252  0.26976670     0.03100
C1452       C  0.78453177  0.28632648  0.26060556    -0.04800
C1453       C  0.80135030  0.26328570  0.24247941    -0.01900
C1454       C  0.78339502  0.22719964  0.23512711     0.03100
C1455       C  0.69193307  0.22529500  0.27264901     0.37700
C1456       C  0.83611713  0.27747828  0.22995154     0.37700
C1457       C  0.80505532  0.20208429  0.21910006     0.36100
C1458       C  0.72776885  0.29724258  0.28730464     0.36100
N1459       N  0.82281841  0.18239363  0.20640585    -0.38700
N1460       N  0.71148470  0.31599324  0.30105893    -0.38700
N1461       N  0.86359599  0.28861636  0.21976968    -0.38100
N1462       N  0.66291270  0.21482626  0.28159508    -0.38100
C1463       C  0.71412447  0.96633106  0.25305307    -0.04800
C1464       C  0.69954493  0.96752158  0.22998284    -0.01900
C1465       C  0.69527821  0.00451700  0.21809852     0.03100
C1466       C  0.70873357  0.04058538  0.22802189    -0.04800
C1467       C  0.72824999  0.03896973  0.24956462    -0.01900
C1468       C  0.73041097  0.00247057  0.26218434     0.03100
C1469       C  0.68862822  0.93089475  0.21803667     0.37700
C1470       C  0.74588558  0.07534619  0.25891930     0.37700
C1471       C  0.74857281  0.00314886  0.28478989     0.36100
C1472       C  0.67416299  0.00573585  0.19631825     0.36100
N1473       N  0.76311296  0.00412594  0.30280592    -0.38700
N1474       N  0.65695411  0.00672505  0.17907970    -0.38700
N1475       N  0.75999884  0.10439125  0.26624633    -0.38100
N1476       N  0.67993642  0.90178500  0.20841865    -0.38100
C1477       C  0.55775703  0.24315283  0.21010662    -0.04800
C1478       C  0.54988184  0.27633171  0.22445636    -0.01900
C1479       C  0.51262611  0.29734911  0.22318598     0.03100
C1480       C  0.48209037  0.28561245  0.20743605    -0.04800
C1481       C  0.49035135  0.25167505  0.19330040    -0.01900
C1482       C  0.52710778  0.23029285  0.19515616     0.03100
C1483       C  0.57960389  0.28787798  0.24132423     0.37700
C1484       C  0.46144571  0.23787809  0.17654645     0.37700
C1485       C  0.53295010  0.19371634  0.18212194     0.36100
C1486       C  0.50661093  0.33190973  0.23780055     0.36100
N1487       N  0.53729462  0.16394133  0.17226877    -0.38700
N1488       N  0.50188401  0.35947959  0.24950690    -0.38700
N1489       N  0.43942786  0.22638305  0.16272606    -0.38100
N1490       N  0.60318319  0.29712318  0.25489381    -0.38100
C1491       C  0.62732777  0.17108809  0.13206283    -0.04800
C1492       C  0.59144778  0.19181701  0.12718117    -0.01900
C1493       C  0.55721969  0.17012600  0.12085424     0.03100
C1494       C  0.55913945  0.12780349  0.11913789    -0.04800
C1495       C  0.59544061  0.10733053  0.12271671    -0.01900
C1496       C  0.62948460  0.12880638  0.12955599     0.03100
C1497       C  0.58992892  0.23548585  0.12829665     0.37700
C1498       C  0.59788519  0.06427717  0.11881205     0.37700
C1499       C  0.66608002  0.10694981  0.13481375     0.36100
C1500       C  0.52042843  0.19168899  0.11571934     0.36100
N1501       N  0.69511098  0.08929484  0.13895241    -0.38700
N1502       N  0.49167887  0.20988647  0.11170123    -0.38700
N1503       N  0.59986971  0.03004902  0.11545334    -0.38100
N1504       N  0.58881598  0.27025858  0.12914370    -0.38100
C1505       C  0.07140136  0.02824051  0.99797198    -0.04800
C1506       C  0.05093967  0.99679904  0.98677670    -0.01900
C1507       C  0.01322198  0.98416451  0.99470845     0.03100
C1508       C  0.99761491  0.99870761  0.01570900    -0.04800
C1509       C  0.01827646  0.02955460  0.02722187    -0.01900
C1510       C  0.05501392  0.04395139  0.01858021     0.03100
C1511       C  0.06837109  0.97676377  0.96720404     0.37700
C1512       C  0.00183711  0.04720276  0.04777784     0.37700
C1513       C  0.07646205  0.07447460  0.03146948     0.36100
C1514       C  0.98947478  0.95738046  0.98046651     0.36100
N1515       N  0.09344646  0.09896355  0.04164673    -0.38700
N1516       N  0.97042562  0.93639602  0.96901352    -0.38700
N1517       N  0.98904179  0.06215192  0.06402279    -0.38100
N1518       N  0.08215463  0.96008482  0.95178907    -0.38100
C1519       C  0.74606738  0.94849206  0.98519885    -0.04800
C1520       C  0.78134790  0.93062837  0.97711305    -0.01900
C1521       C  0.81713372  0.93348920  0.98986013     0.03100
C1522       C  0.81842890  0.95555417  0.01078935    -0.04800
C1523       C  0.78323309  0.97549081  0.01807513    -0.01900
C1524       C  0.74719306  0.97147727  0.00550325     0.03100
C1525       C  0.78029996  0.90682177  0.95631259     0.37700
C1526       C  0.78373132  0.00037423  0.03842742     0.37700
C1527       C  0.71114451  0.99120565  0.01350448     0.36100
C1528       C  0.85170422  0.91143765  0.98160453     0.36100
N1529       N  0.68254353  0.00700129  0.02002172    -0.38700
N1530       N  0.87897834  0.89368600  0.97485463    -0.38700
N1531       N  0.78419951  0.02019613  0.05466376    -0.38100
N1532       N  0.77962383  0.88774257  0.93980212    -0.38100
C1533       C  0.12956607  0.86420038  0.13035026    -0.04800
C1534       C  0.12534959  0.90595601  0.13385080    -0.01900
C1535       C  0.09090103  0.92575948  0.12574533     0.03100
C1536       C  0.06026698  0.90322844  0.11529628    -0.04800
C1537       C  0.06451806  0.86137365  0.11214988    -0.01900
C1538       C  0.10031242  0.84251059  0.11829382     0.03100
C1539       C  0.15618350  0.92833179  0.14584588     0.37700
C1540       C  0.03150072  0.83696997  0.10388091     0.37700
C1541       C  0.10793769  0.80155349  0.11096517     0.36100
C1542       C  0.08708941  0.96905207  0.12790657     0.36100
N1543       N  0.11391660  0.76932087  0.10440197    -0.38700
N1544       N  0.08407507  0.00361420  0.12950328    -0.38700
N1545       N  0.00558690  0.81637552  0.09792699    -0.38100
N1546       N  0.18081234  0.94621443  0.15536718    -0.38100
C1547       C  0.81183952  0.10359067  0.14208714    -0.04800
C1548       C  0.80798014  0.06117663  0.14258414    -0.01900
C1549       C  0.82941720  0.03655488  0.12687757     0.03100
C1550       C  0.85534877  0.05342077  0.11010486    -0.04800
C1551       C  0.85962738  0.09558120  0.10970180    -0.01900
C1552       C  0.83881554  0.12027441  0.12563705     0.03100
C1553       C  0.78198050  0.04240592  0.15924393     0.37700
C1554       C  0.88662462  0.11353624  0.09325113     0.37700
C1555       C  0.84695172  0.16314242  0.12572506     0.36100
C1556       C  0.82509849  0.99314080  0.12816081     0.36100
N1557       N  0.85362650  0.19730518  0.12588346    -0.38700
N1558       N  0.82175251  0.95852254  0.12918546    -0.38700
N1559       N  0.90804926  0.12777093  0.08000872    -0.38100
N1560       N  0.76165742  0.02689075  0.17258708    -0.38100
C1561       C  0.00518517  0.80512898  0.03800459    -0.04800
C1562       C  0.98525581  0.76878859  0.03252669    -0.01900
C1563       C  0.00565476  0.73125898  0.03381151     0.03100
C1564       C  0.04778891  0.72948376  0.03722048    -0.04800
C1565       C  0.06839122  0.76620605  0.04066049    -0.01900
C1566       C  0.04720702  0.80334512  0.04186738     0.03100
C1567       C  0.94368557  0.76959429  0.02531508     0.37700
C1568       C  0.11138356  0.76574297  0.04409663     0.37700
C1569       C  0.06915024  0.84004710  0.04659344     0.36100
C1570       C  0.98246704  0.69447151  0.03242504     0.36100
N1571       N  0.08663330  0.86931430  0.05044091    -0.38700
N1572       N  0.96330141  0.66549479  0.03184850    -0.38700
N1573       N  0.14572975  0.76548131  0.04673829    -0.38100
N1574       N  0.91080403  0.76997175  0.01898262    -0.38100
C1575       C  0.56076830  0.49019524  0.01541302    -0.04800
C1576       C  0.52229387  0.47207863  0.01398832    -0.01900
C1577       C  0.49007928  0.49197070  0.00306887     0.03100
C1578       C  0.49395616  0.53252101  0.99614252    -0.04800
C1579       C  0.53122160  0.55239964  0.00055330    -0.01900
C1580       C  0.56482520  0.53069642  0.00880363     0.03100
C1581       C  0.51495534  0.43356522  0.02495174     0.37700
C1582       C  0.53573014  0.59543698  0.99737782     0.37700
C1583       C  0.60378516  0.54993239  0.00977994     0.36100
C1584       C  0.45267276  0.47057377  0.99963276     0.36100
N1585       N  0.63491522  0.56514205  0.01038773    -0.38700
N1586       N  0.42297045  0.45336911  0.99677656    -0.38700
N1587       N  0.53973718  0.62991423  0.99587314    -0.38100
N1588       N  0.50894812  0.40334734  0.03418690    -0.38100
C1589       C  0.81787345  0.44997736  0.98644762    -0.04800
C1590       C  0.78483771  0.42986739  0.97680831    -0.01900
C1591       C  0.74791459  0.42850165  0.98836182     0.03100
C1592       C  0.74368945  0.44581811  0.01058848    -0.04800
C1593       C  0.77730823  0.46626520  0.02013060    -0.01900
C1594       C  0.81386783  0.46854085  0.00801192     0.03100
C1595       C  0.78981221  0.40725342  0.95575649     0.37700
C1596       C  0.77517168  0.48481369  0.04253221     0.37700
C1597       C  0.84770833  0.48981724  0.01789237     0.36100
C1598       C  0.71510953  0.40759460  0.97714448     0.36100
N1599       N  0.87466117  0.50674257  0.02580392    -0.38700
N1600       N  0.68914943  0.39101866  0.96799416    -0.38700
N1601       N  0.77389952  0.49949048  0.06043994    -0.38100
N1602       N  0.79401995  0.38877025  0.93920613    -0.38100
C1603       C  0.51415199  0.21499819  0.03953068    -0.04800
C1604       C  0.55103560  0.22056452  0.05148232    -0.01900
C1605       C  0.56951592  0.25891425  0.05261180     0.03100
C1606       C  0.55396034  0.29185938  0.04010889    -0.04800
C1607       C  0.52007383  0.28538038  0.02591715    -0.01900
C1608       C  0.49956371  0.24778469  0.02618504     0.03100
C1609       C  0.57193150  0.18638377  0.06142556     0.37700
C1610       C  0.50600550  0.31729642  0.01093982     0.37700
C1611       C  0.46293951  0.24353650  0.01300946     0.36100
C1612       C  0.60541996  0.26432017  0.06637407     0.36100
N1613       N  0.43368358  0.24023131  0.00248924    -0.38700
N1614       N  0.63399559  0.26879266  0.07735307    -0.38700
N1615       N  0.49449452  0.34203247  0.99854427    -0.38100
N1616       N  0.58942461  0.15928526  0.06895183    -0.38100
C1617       C  0.41852737  0.39864598  0.12702188    -0.04800
C1618       C  0.41669554  0.40784880  0.10323871    -0.01900
C1619       C  0.44866883  0.42819281  0.09288078     0.03100
C1620       C  0.48219563  0.43882298  0.10596501    -0.04800
C1621       C  0.48059091  0.43720270  0.12990139    -0.01900
C1622       C  0.44984793  0.41579384  0.14050240     0.03100
C1623       C  0.38300323  0.39596786  0.08899562     0.37700
C1624       C  0.51136059  0.45664453  0.14368797     0.37700
C1625       C  0.45269877  0.41081738  0.16516456     0.36100
C1626       C  0.44512243  0.44215907  0.06950532     0.36100
N1627       N  0.45750664  0.40740578  0.18470489    -0.38700
N1628       N  0.44005277  0.45456130  0.05121147    -0.38700
N1629       N  0.53547383  0.47266350  0.15463440    -0.38100
N1630       N  0.35620735  0.38700055  0.07746588    -0.38100
C1631       C  0.64224536  0.37601334  0.13087253    -0.04800
C1632       C  0.62938394  0.36535946  0.15299509    -0.01900
C1633       C  0.65479789  0.34253512  0.16723540     0.03100
C1634       C  0.69062155  0.32659920  0.15833187    -0.04800
C1635       C  0.70654240  0.34373603  0.13829817    -0.01900
C1636       C  0.68222427  0.36817872  0.12440238     0.03100
C1637       C  0.58915643  0.37465173  0.16047948     0.37700
C1638       C  0.74758537  0.33543264  0.13181504     0.37700
C1639       C  0.69844039  0.38458893  0.10337799     0.36100
C1640       C  0.64434868  0.33597105  0.19092419     0.36100
N1641       N  0.71224795  0.39741156  0.08677527    -0.38700
N1642       N  0.63679985  0.33182304  0.21005949    -0.38700
N1643       N  0.78035639  0.32912611  0.12662827    -0.38100
N1644       N  0.55696803  0.38114945  0.16664304    -0.38100
C1645       C  0.79542069  0.72478085  0.23986797    -0.04800
C1646       C  0.75866661  0.71608349  0.25055662    -0.01900
C1647       C  0.73740410  0.74671501  0.26200817     0.03100
C1648       C  0.75313333  0.78636311  0.26352055    -0.04800
C1649       C  0.79037470  0.79482826  0.25347272    -0.01900
C1650       C  0.81117881  0.76450556  0.24156160     0.03100
C1651       C  0.74349116  0.67517610  0.25074889     0.37700
C1652       C  0.80657270  0.83533709  0.25447591     0.37700
C1653       C  0.84871209  0.77491197  0.23074248     0.36100
C1654       C  0.69928028  0.73701427  0.27243269     0.36100
N1655       N  0.87886658  0.78327869  0.22238544    -0.38700
N1656       N  0.66871044  0.72916390  0.28049059    -0.38700
N1657       N  0.81934417  0.86765867  0.25534917    -0.38100
N1658       N  0.73170322  0.64244108  0.25098054    -0.38100
C1659       C  0.83335630  0.54480726  0.23927732    -0.04800
C1660       C  0.80247406  0.51692664  0.23399480    -0.01900
C1661       C  0.80016953  0.47962868  0.24575980     0.03100
C1662       C  0.82695028  0.47075738  0.26382505    -0.04800
C1663       C  0.85635626  0.49908105  0.26998855    -0.01900
C1664       C  0.86006818  0.53548356  0.25766446     0.03100
C1665       C  0.77210187  0.52675462  0.21705282     0.37700
C1666       C  0.88473471  0.48950538  0.28817191     0.37700
C1667       C  0.89297042  0.56214523  0.26350194     0.36100
C1668       C  0.77053970  0.44994779  0.23911755     0.36100
N1669       N  0.91921355  0.58330702  0.26822544    -0.38700
N1670       N  0.74724135  0.42594840  0.23379853    -0.38700
N1671       N  0.90744620  0.48174986  0.30255989    -0.38100
N1672       N  0.74740765  0.53440919  0.20376147    -0.38100
C1673       C  0.98809613  0.73480718  0.20586587    -0.04800
C1674       C  0.99233637  0.77661471  0.20119283    -0.01900
C1675       C  0.02979173  0.79641910  0.20401112     0.03100
C1676       C  0.06456104  0.77473172  0.21034696    -0.04800
C1677       C  0.06089886  0.73274085  0.21418984    -0.01900
C1678       C  0.02304351  0.71320113  0.21250517     0.03100
C1679       C  0.95846749  0.79981929  0.19307448     0.37700
C1680       C  0.09635152  0.70931178  0.21964286     0.37700
C1681       C  0.02062974  0.67019225  0.21657160     0.36100
C1682       C  0.03307314  0.83913543  0.19911300     0.36100
N1683       N  0.01867454  0.63587748  0.21983614    -0.38700
N1684       N  0.03600879  0.87318299  0.19524430    -0.38700
N1685       N  0.12460501  0.69045640  0.22384856    -0.38100
N1686       N  0.93216593  0.81914179  0.18626788    -0.38100
C1687       C  0.90451343  0.65799564  0.11599322    -0.04800
C1688       C  0.89854807  0.61933143  0.10666539    -0.01900
C1689       C  0.93072574  0.59927412  0.09622450     0.03100
C1690       C  0.96792405  0.61877696  0.09428574    -0.04800
C1691       C  0.97146577  0.65988658  0.10025422    -0.01900
C1692       C  0.93997933  0.67915359  0.11152638     0.03100
C1693       C  0.85986744  0.59988152  0.10825703     0.37700
C1694       C  0.00751276  0.68274530  0.09578185     0.37700
C1695       C  0.94419381  0.72067849  0.11892009     0.36100
C1696       C  0.92574769  0.55869531  0.08765921     0.36100
N1697       N  0.94755692  0.75370077  0.12482136    -0.38700
N1698       N  0.92162051  0.52639559  0.08072289    -0.38700
N1699       N  0.03507593  0.70318632  0.09293322    -0.38100
N1700       N  0.82886680  0.58448372  0.10900897    -0.38100
C1701       C  0.84642242  0.80556254  0.13958023    -0.04800
C1702       C  0.85750665  0.83926336  0.15246037    -0.01900
C1703       C  0.88254765  0.86857806  0.14279235     0.03100
C1704       C  0.89587534  0.86439162  0.11985154    -0.04800
C1705       C  0.88165966  0.83185040  0.10654515    -0.01900
C1706       C  0.85558389  0.80360096  0.11615265     0.03100
C1707       C  0.84296890  0.84361747  0.17565788     0.37700
C1708       C  0.89446169  0.82553497  0.08323941     0.37700
C1709       C  0.83995701  0.77112956  0.10207471     0.36100
C1710       C  0.89662627  0.90122080  0.15718698     0.36100
N1711       N  0.82727072  0.74572221  0.09066811    -0.38700
N1712       N  0.90783698  0.92717971  0.16869220    -0.38700
N1713       N  0.90378080  0.81847109  0.06467829    -0.38100
N1714       N  0.83111554  0.84775653  0.19405792    -0.38100
C1715       C  0.73520491  0.58486206  0.14571299    -0.04800
C1716       C  0.70070851  0.59822405  0.13359944    -0.01900
C1717       C  0.68294313  0.57434314  0.11611527     0.03100
C1718       C  0.69931122  0.53656222  0.11016972    -0.04800
C1719       C  0.73315387  0.52273338  0.12274488    -0.01900
C1720       C  0.75125150  0.54687702  0.13997994     0.03100
C1721       C  0.68391484  0.63734202  0.13880216     0.37700
C1722       C  0.75001140  0.48357089  0.11787429     0.37700
C1723       C  0.78811895  0.53366659  0.15090229     0.36100
C1724       C  0.64716591  0.58841897  0.10441132     0.36100
N1725       N  0.81777782  0.52346212  0.15945508    -0.38700
N1726       N  0.61863069  0.59955242  0.09501292    -0.38700
N1727       N  0.76439404  0.45256302  0.11434782    -0.38100
N1728       N  0.67039322  0.66853019  0.14291794    -0.38100
C1729       C  0.79885779  0.22160837  0.76258399    -0.04800
C1730       C  0.75875565  0.21646528  0.75561830    -0.01900
C1731       C  0.73799179  0.24798458  0.74436078     0.03100
C1732       C  0.75660237  0.28592488  0.74016699    -0.04800
C1733       C  0.79649825  0.29138325  0.74737969    -0.01900
C1734       C  0.81753948  0.25965035  0.75836244     0.03100
C1735       C  0.73871945  0.17830973  0.75929047     0.37700
C1736       C  0.81570988  0.33019112  0.74432421     0.37700
C1737       C  0.85857741  0.26707357  0.76550418     0.36100
C1738       C  0.69719654  0.24055756  0.73682952     0.36100
N1739       N  0.89138204  0.27327318  0.77087253    -0.38700
N1740       N  0.66450264  0.23471724  0.73116226    -0.38700
N1741       N  0.83115828  0.36107785  0.74197255    -0.38100
N1742       N  0.72212591  0.14819546  0.76215277    -0.38100
C1743       C  0.71945528  0.46709697  0.73935717    -0.04800
C1744       C  0.71808777  0.50487597  0.72814633    -0.01900
C1745       C  0.71934664  0.54080829  0.74097155     0.03100
C1746       C  0.71824716  0.53968979  0.76525780    -0.04800
C1747       C  0.72391281  0.50207969  0.77634719    -0.01900
C1748       C  0.72556310  0.46621499  0.76339864     0.03100
C1749       C  0.71311513  0.50735578  0.70350553     0.37700
C1750       C  0.72716162  0.49960904  0.80106741     0.37700
C1751       C  0.73391176  0.42825530  0.77489078     0.36100
C1752       C  0.72282367  0.57902287  0.72899656     0.36100
N1753       N  0.74085834  0.39798761  0.78395519    -0.38700
N1754       N  0.72609520  0.60946394  0.71949611    -0.38700
N1755       N  0.73004125  0.49727836  0.82077142    -0.38100
N1756       N  0.70903372  0.50993223  0.68387666    -0.38100
C1757       C  0.03991593  0.49062018  0.48335151    -0.04800
C1758       C  0.04512538  0.52976811  0.49185204    -0.01900
C1759       C  0.01314289  0.54963187  0.50269751     0.03100
C1760       C  0.97490746  0.53108628  0.50493539    -0.04800
C1761       C  0.96932111  0.49241378  0.49570061    -0.01900
C1762       C  0.00127112  0.47264688  0.48470186     0.03100
C1763       C  0.08397403  0.54924532  0.49054247     0.37700
C1764       C  0.93083402  0.47244776  0.49750287     0.37700
C1765       C  0.99366580  0.43357436  0.47469478     0.36100
C1766       C  0.02133543  0.58840033  0.51277861     0.36100
N1767       N  0.98684653  0.40232474  0.46702696    -0.38700
N1768       N  0.02977165  0.61910947  0.52057980    -0.38700
N1769       N  0.90054591  0.45581219  0.49901413    -0.38100
N1770       N  0.11482617  0.56492576  0.48950721    -0.38100
C1771       C  0.79347703  0.55947751  0.51399099    -0.04800
C1772       C  0.79084426  0.54115496  0.49220707    -0.01900
C1773       C  0.75347234  0.53738280  0.48086151     0.03100
C1774       C  0.71831496  0.55411668  0.49050115    -0.04800
C1775       C  0.72082912  0.56935752  0.51329712    -0.01900
C1776       C  0.75815503  0.57272537  0.52460493     0.03100
C1777       C  0.82680659  0.52745333  0.48084650     0.37700
C1778       C  0.68553606  0.58251897  0.52554100     0.37700
C1779       C  0.76057506  0.59353875  0.54639048     0.36100
C1780       C  0.75156135  0.51538659  0.45946946     0.36100
N1781       N  0.76258813  0.61047704  0.56361618    -0.38700
N1782       N  0.75010409  0.49746770  0.44254394    -0.38700
N1783       N  0.65777980  0.59296888  0.53566692    -0.38100
N1784       N  0.85514829  0.51707009  0.47124674    -0.38100
C1785       C  0.85433313  0.46014195  0.60460921    -0.04800
C1786       C  0.87037867  0.43455506  0.62224436    -0.01900
C1787       C  0.84537544  0.41560663  0.63888976     0.03100
C1788       C  0.80359888  0.42189770  0.63884246    -0.04800
C1789       C  0.78751677  0.44695711  0.62111845    -0.01900
C1790       C  0.81237542  0.46560873  0.60433140     0.03100
C1791       C  0.91320521  0.42752643  0.62349722     0.37700
C1792       C  0.74472069  0.45405317  0.62007333     0.37700
C1793       C  0.79444533  0.49180774  0.58726679     0.36100
C1794       C  0.86263692  0.38808516  0.65554591     0.36100
N1795       N  0.77957690  0.51252668  0.57372462    -0.38700
N1796       N  0.87641053  0.36596504  0.66876653    -0.38700
N1797       N  0.71065329  0.45996453  0.61890181    -0.38100
N1798       N  0.94739954  0.42229812  0.62471249    -0.38100
C1799       C  0.78780176  0.78301371  0.73906414    -0.04800
C1800       C  0.74934003  0.79004271  0.74784451    -0.01900
C1801       C  0.72825252  0.75859633  0.75883385     0.03100
C1802       C  0.74574943  0.71970452  0.76174796    -0.04800
C1803       C  0.78350869  0.71236581  0.75221503    -0.01900
C1804       C  0.80444128  0.74366901  0.74119211     0.03100
C1805       C  0.73203664  0.83008779  0.74658766     0.37700
C1806       C  0.80001916  0.67189515  0.75249606     0.37700
C1807       C  0.84360124  0.73467319  0.73223079     0.36100
C1808       C  0.68811315  0.76677593  0.76671556     0.36100
N1809       N  0.87521074  0.72686112  0.72577972    -0.38700
N1810       N  0.65568465  0.77365628  0.77221529    -0.38700
N1811       N  0.81297462  0.63958983  0.75251296    -0.38100
N1812       N  0.71825521  0.86201814  0.74568217    -0.38100
C1813       C  0.84298276  0.03848159  0.76170286    -0.04800
C1814       C  0.80556184  0.02297356  0.75455113    -0.01900
C1815       C  0.80369774  0.98689591  0.74175713     0.03100
C1816       C  0.83918125  0.96620620  0.73620221    -0.04800
C1817       C  0.87652114  0.98198032  0.74311767    -0.01900
C1818       C  0.87840885  0.01764099  0.75596119     0.03100
C1819       C  0.76903822  0.04407862  0.76014414     0.37700
C1820       C  0.91325915  0.96158838  0.73672815     0.37700
C1821       C  0.91699258  0.03216265  0.76396738     0.36100
C1822       C  0.76537338  0.97052816  0.73473901     0.36100
N1823       N  0.94771409  0.04360230  0.77044831    -0.38700
N1824       N  0.73485614  0.95735970  0.72907560    -0.38700
N1825       N  0.94241080  0.94529673  0.73150533    -0.38100
N1826       N  0.73949861  0.06037289  0.76455496    -0.38100
C1827       C  0.87642302  0.71133879  0.64045363    -0.04800
C1828       C  0.85180740  0.67970672  0.63291652    -0.01900
C1829       C  0.86931320  0.64616833  0.62251705     0.03100
C1830       C  0.91126669  0.64461653  0.62017571    -0.04800
C1831       C  0.93584428  0.67501455  0.62913428    -0.01900
C1832       C  0.91838202  0.70926274  0.63845016     0.03100
C1833       C  0.80869224  0.68219552  0.63543581     0.37700
C1834       C  0.97908666  0.67054202  0.62896040     0.37700
C1835       C  0.94370620  0.74269469  0.64515489     0.36100
C1836       C  0.84426365  0.61410901  0.61362693     0.36100
N1837       N  0.96466722  0.76885496  0.65030062    -0.38700
N1838       N  0.82427842  0.58847959  0.60663767    -0.38700
N1839       N  0.01342465  0.66615401  0.62892564    -0.38100
N1840       N  0.77432495  0.68429051  0.63745615    -0.38100
C1841       C  0.48143187  0.98703071  0.48814285    -0.04800
C1842       C  0.49787704  0.97239902  0.50911268    -0.01900
C1843       C  0.53392557  0.98815795  0.51816481     0.03100
C1844       C  0.55265557  0.02155362  0.50767024    -0.04800
C1845       C  0.53568671  0.03677224  0.48685229    -0.01900
C1846       C  0.50042208  0.01980960  0.47732194     0.03100
C1847       C  0.47711683  0.94130119  0.52196474     0.37700
C1848       C  0.55525421  0.06906382  0.47436771     0.37700
C1849       C  0.48442757  0.03604758  0.45609875     0.36100
C1850       C  0.55158469  0.96890625  0.53812655     0.36100
N1851       N  0.47220453  0.04970225  0.43919927    -0.38700
N1852       N  0.56530586  0.95239240  0.55379485    -0.38700
N1853       N  0.57051505  0.09487734  0.46433169    -0.38100
N1854       N  0.46069456  0.91657341  0.53226785    -0.38100
C1855       C  0.73314669  0.05151700  0.50947345    -0.04800
C1856       C  0.73371516  0.05246792  0.48511568    -0.01900
C1857       C  0.77043454  0.05390218  0.47304752     0.03100
C1858       C  0.80743209  0.05199661  0.48497362    -0.04800
C1859       C  0.80657469  0.04349171  0.50876915    -0.01900
C1860       C  0.77001520  0.04404416  0.52100166     0.03100
C1861       C  0.69653258  0.05076120  0.47217756     0.37700
C1862       C  0.84341692  0.03313584  0.52073178     0.37700
C1863       C  0.77112549  0.03729750  0.54552885     0.36100
C1864       C  0.76966803  0.05875958  0.44836297     0.36100
N1865       N  0.77241275  0.03160655  0.56506944    -0.38700
N1866       N  0.76885500  0.06256145  0.42866864    -0.38700
N1867       N  0.87272273  0.02451070  0.53021069    -0.38100
N1868       N  0.66694844  0.04895125  0.46183258    -0.38100
C1869       C  0.64013832  0.14957371  0.61741151    -0.04800
C1870       C  0.65931079  0.18031600  0.60476501    -0.01900
C1871       C  0.68420952  0.20782407  0.61597390     0.03100
C1872       C  0.68565552  0.20839866  0.64004334    -0.04800
C1873       C  0.66727484  0.17752016  0.65275791    -0.01900
C1874       C  0.64490125  0.14783085  0.64147253     0.03100
C1875       C  0.65290357  0.18582617  0.58044085     0.37700
C1876       C  0.67227253  0.17552721  0.67737572     0.37700
C1877       C  0.62483451  0.11694139  0.65484051     0.36100
C1878       C  0.70719794  0.23658671  0.60259085     0.36100
N1879       N  0.60884027  0.09230072  0.66543457    -0.38700
N1880       N  0.72582053  0.25919269  0.59194759    -0.38700
N1881       N  0.67632684  0.17259582  0.69697388    -0.38100
N1882       N  0.64914950  0.19294536  0.56115106    -0.38100
C1883       C  0.68922717  0.95997537  0.60649189    -0.04800
C1884       C  0.71910753  0.97796805  0.62061430    -0.01900
C1885       C  0.73898924  0.95578953  0.63833925     0.03100
C1886       C  0.72885852  0.91520260  0.64294130    -0.04800
C1887       C  0.69816164  0.89766891  0.62924014    -0.01900
C1888       C  0.67858118  0.91973739  0.61143856     0.03100
C1889       C  0.72817695  0.02034236  0.61754393     0.37700
C1890       C  0.68682411  0.85617963  0.63341881     0.37700
C1891       C  0.64608375  0.90138796  0.59871642     0.36100
C1892       C  0.77081106  0.97457284  0.65143282     0.36100
N1893       N  0.62003442  0.88675708  0.58863056    -0.38700
N1894       N  0.79618639  0.98965540  0.66186903    -0.38700
N1895       N  0.67803726  0.82301218  0.63677355    -0.38100
N1896       N  0.73500734  0.05424202  0.61518849    -0.38100
C1897       C  0.28558865  0.78153929  0.76794729    -0.04800
C1898       C  0.29752932  0.74126853  0.77247404    -0.01900
C1899       C  0.28046638  0.70903645  0.76011763     0.03100
C1900       C  0.25220275  0.71679030  0.74269452    -0.04800
C1901       C  0.24024505  0.75703137  0.73821992    -0.01900
C1902       C  0.25690106  0.78919512  0.75075953     0.03100
C1903       C  0.32786073  0.73288363  0.78970430     0.37700
C1904       C  0.21087079  0.76565206  0.72052628     0.37700
C1905       C  0.24606589  0.83039571  0.74517349     0.36100
C1906       C  0.29093686  0.66780559  0.76584000     0.36100
N1907       N  0.23764199  0.86329398  0.74069740    -0.38700
N1908       N  0.29907882  0.63488276  0.77043449    -0.38700
N1909       N  0.18738949  0.77331549  0.70656283    -0.38100
N1910       N  0.35223504  0.72578692  0.80327509    -0.38100
C1911       C  0.22805072  0.53865136  0.74662630    -0.04800
C1912       C  0.22329714  0.53908221  0.77087116    -0.01900
C1913       C  0.22340577  0.50284407  0.78352636     0.03100
C1914       C  0.23288785  0.46623177  0.77274662    -0.04800
C1915       C  0.24469526  0.46689020  0.74946763    -0.01900
C1916       C  0.24058301  0.50233241  0.73622561     0.03100
C1917       C  0.21694747  0.57651267  0.78309088     0.37700
C1918       C  0.25970641  0.43055769  0.73874527     0.37700
C1919       C  0.24653969  0.50003646  0.71167519     0.36100
C1920       C  0.20990967  0.50316305  0.80709763     0.36100
N1921       N  0.25091958  0.49793847  0.69208164    -0.38700
N1922       N  0.19889996  0.50364636  0.82583389    -0.38700
N1923       N  0.27164525  0.40172545  0.73008793    -0.38100
N1924       N  0.21169366  0.60615583  0.79295500    -0.38100
C1925       C  0.05280053  0.71635384  0.71508134    -0.04800
C1926       C  0.05050873  0.75356312  0.72677092    -0.01900
C1927       C  0.01445000  0.77680469  0.72655518     0.03100
C1928       C  0.97938730  0.76267724  0.71516179    -0.04800
C1929       C  0.98138842  0.72361248  0.70518292    -0.01900
C1930       C  0.01778387  0.70166909  0.70444690     0.03100
C1931       C  0.08591641  0.76881936  0.73826073     0.37700
C1932       C  0.94569905  0.70395213  0.69660667     0.37700
C1933       C  0.01891802  0.66306928  0.69290223     0.36100
C1934       C  0.01425058  0.81574249  0.73760918     0.36100
N1935       N  0.01975883  0.63239569  0.68362544    -0.38700
N1936       N  0.01444006  0.84675602  0.74654101    -0.38700
N1937       N  0.91803565  0.68657415  0.68994025    -0.38100
N1938       N  0.11420905  0.78080252  0.74748509    -0.38100
C1939       C  0.06784218  0.59536292  0.59582819    -0.04800
C1940       C  0.08740030  0.57149779  0.61256162    -0.01900
C1941       C  0.11734547  0.58850034  0.62630889     0.03100
C1942       C  0.12873692  0.62879046  0.62267085    -0.04800
C1943       C  0.11354698  0.65067130  0.60388432    -0.01900
C1944       C  0.08342425  0.63377437  0.59023280     0.03100
C1945       C  0.07615905  0.52970421  0.61594194     0.37700
C1946       C  0.12633908  0.69192211  0.59973559     0.37700
C1947       C  0.06796084  0.65748324  0.57135800     0.36100
C1948       C  0.13595003  0.56479449  0.64440153     0.36100
N1949       N  0.05789885  0.67798534  0.55638324    -0.38700
N1950       N  0.15110225  0.54578159  0.65865776    -0.38700
N1951       N  0.13639509  0.72475413  0.59645238    -0.38100
N1952       N  0.06713055  0.49640535  0.61858885    -0.38100
C1953       C  0.47131819  0.48389310  0.50714767    -0.04800
C1954       C  0.49128219  0.51641353  0.51757329    -0.01900
C1955       C  0.52604008  0.53274035  0.50757508     0.03100
C1956       C  0.54023965  0.51880123  0.48602550    -0.04800
C1957       C  0.51962825  0.48696312  0.47527468    -0.01900
C1958       C  0.48484707  0.47047877  0.48540576     0.03100
C1959       C  0.47639035  0.53357538  0.53868297     0.37700
C1960       C  0.53399432  0.47062411  0.45387622     0.37700
C1961       C  0.46176897  0.44093625  0.47272422     0.36100
C1962       C  0.54787961  0.56329372  0.52024836     0.36100
N1963       N  0.44323358  0.41769472  0.46247670    -0.38700
N1964       N  0.56486483  0.58777147  0.53042666    -0.38700
N1965       N  0.54530018  0.45658357  0.43701640    -0.38100
N1966       N  0.46455610  0.54786095  0.55535716    -0.38100
C1967       C  0.29647699  0.44533613  0.51824051    -0.04800
C1968       C  0.29361416  0.46772443  0.49775245    -0.01900
C1969       C  0.25675685  0.47040454  0.48579761     0.03100
C1970       C  0.22218580  0.45035821  0.49425756    -0.04800
C1971       C  0.22470928  0.43154887  0.51622021    -0.01900
C1972       C  0.26174156  0.42844212  0.52777117     0.03100
C1973       C  0.32874971  0.48825963  0.48905147     0.37700
C1974       C  0.18981618  0.41417580  0.52719230     0.37700
C1975       C  0.26436322  0.40524531  0.54884295     0.36100
C1976       C  0.25486724  0.49436328  0.46498763     0.36100
N1977       N  0.26566079  0.38623649  0.56546021    -0.38700
N1978       N  0.25353874  0.51357726  0.44842788    -0.38700
N1979       N  0.16221811  0.40043088  0.53618961    -0.38100
N1980       N  0.35670227  0.50482671  0.48219412    -0.38100
C1981       C  0.53973844  0.21263223  0.54152559    -0.04800
C1982       C  0.53695891  0.23944143  0.52253686    -0.01900
C1983       C  0.51398068  0.27581417  0.52374786     0.03100
C1984       C  0.49100341  0.28530831  0.54341747    -0.04800
C1985       C  0.49346493  0.25829718  0.56225359    -0.01900
C1986       C  0.51916914  0.22422190  0.56184562     0.03100
C1987       C  0.55788324  0.23005262  0.50160415     0.37700
C1988       C  0.46878047  0.26477731  0.58231491     0.37700
C1989       C  0.52618442  0.20314926  0.58333152     0.36100
C1990       C  0.51578273  0.30449857  0.50504140     0.36100
N1991       N  0.53159942  0.18752032  0.60081526    -0.38700
N1992       N  0.51760739  0.32769322  0.49025460    -0.38700
N1993       N  0.44906197  0.26960106  0.59829103    -0.38100
N1994       N  0.57457680  0.22269113  0.48484120    -0.38100
C1995       C  0.57030834  0.41401745  0.60080461    -0.04800
C1996       C  0.58863295  0.38136292  0.58935959    -0.01900
C1997       C  0.61835581  0.35860213  0.60053419     0.03100
C1998       C  0.63315460  0.37146488  0.62185102    -0.04800
C1999       C  0.62119572  0.40919568  0.63058654    -0.01900
C2000       C  0.58903481  0.43000171  0.62049258     0.03100
C2001       C  0.57637438  0.37062251  0.56629620     0.37700
C2002       C  0.64151044  0.42650597  0.65022303     0.37700
C2003       C  0.57436597  0.46636655  0.63127505     0.36100
C2004       C  0.63047370  0.32036952  0.59099490     0.36100
N2005       N  0.56290695  0.49532977  0.64000504    -0.38700
N2006       N  0.63890309  0.28974538  0.58303414    -0.38700
N2007       N  0.65771498  0.44120198  0.66559611    -0.38100
N2008       N  0.56696145  0.36230203  0.54782714    -0.38100
C2009       C  0.35459883  0.54038661  0.61131673    -0.04800
C2010       C  0.31258737  0.53943100  0.60875203    -0.01900
C2011       C  0.28718248  0.56109088  0.62396540     0.03100
C2012       C  0.30276358  0.58373291  0.64279087    -0.04800
C2013       C  0.34482538  0.58497905  0.64523597    -0.01900
C2014       C  0.37031324  0.56366671  0.62984758     0.03100
C2015       C  0.29503053  0.51480204  0.59091407     0.37700
C2016       C  0.36212254  0.61032486  0.66280483     0.37700
C2017       C  0.41330367  0.56651500  0.63296273     0.36100
C2018       C  0.24447261  0.56020887  0.61969189     0.36100
N2019       N  0.44760275  0.56870578  0.63550603    -0.38700
N2020       N  0.21064503  0.55933668  0.61547549    -0.38700
N2021       N  0.37581871  0.63087269  0.67672964    -0.38100
N2022       N  0.28062763  0.49516015  0.57680018    -0.38100
C2023       C  0.29869304  0.21832686  0.74324301    -0.04800
C2024       C  0.31890728  0.25488682  0.74880482    -0.01900
C2025       C  0.29849322  0.28721866  0.75922909     0.03100
C2026       C  0.25798429  0.28327915  0.76543597    -0.04800
C2027       C  0.23833841  0.24610614  0.76074933    -0.01900
C2028       C  0.25815291  0.21445997  0.74936296     0.03100
C2029       C  0.36122788  0.25991721  0.74438939     0.37700
C2030       C  0.19784992  0.23879721  0.76826998     0.37700
C2031       C  0.23681877  0.17715640  0.74491683     0.36100
C2032       C  0.31940132  0.32494347  0.76297833     0.36100
N2033       N  0.21966224  0.14757153  0.74136396    -0.38700
N2034       N  0.33631282  0.35488304  0.76587917    -0.38700
N2035       N  0.16564620  0.23115625  0.77384559    -0.38100
N2036       N  0.39521416  0.26433612  0.74183525    -0.38100
C2037       C  0.32090236  0.03650673  0.73542776    -0.04800
C2038       C  0.30973924  0.03618401  0.75880706    -0.01900
C2039       C  0.30726176  0.99955292  0.77114686     0.03100
C2040       C  0.31576980  0.96247232  0.76022341    -0.04800
C2041       C  0.32052968  0.96274421  0.73601431    -0.01900
C2042       C  0.32455844  0.99942984  0.72391349     0.03100
C2043       C  0.30170199  0.07377549  0.77051806     0.37700
C2044       C  0.32154585  0.92536789  0.72323398     0.37700
C2045       C  0.33591504  0.99860345  0.69998731     0.36100
C2046       C  0.29695075  0.00078948  0.79523346     0.36100
N2047       N  0.34542316  0.99771621  0.68098966    -0.38700
N2048       N  0.28849954  0.00191351  0.81440209    -0.38700
N2049       N  0.32230689  0.89574222  0.71290653    -0.38100
N2050       N  0.29553582  0.10367135  0.77995135    -0.38100
C2051       C  0.56040566  0.27315824  0.71030517    -0.04800
C2052       C  0.53558609  0.26881434  0.69064784    -0.01900
C2053       C  0.50060883  0.24482764  0.69118651     0.03100
C2054       C  0.48726532  0.22628489  0.71181928    -0.04800
C2055       C  0.51195451  0.23041819  0.73150854    -0.01900
C2056       C  0.54810366  0.25344407  0.73075919     0.03100
C2057       C  0.54477816  0.29030706  0.66955005     0.37700
C2058       C  0.49992312  0.21170687  0.75281586     0.37700
C2059       C  0.57262501  0.25649038  0.75119692     0.36100
C2060       C  0.47901023  0.23962803  0.66976455     0.36100
N2061       N  0.59210819  0.25901777  0.76756468    -0.38700
N2062       N  0.46351003  0.23734226  0.65206832    -0.38700
N2063       N  0.49045759  0.19673839  0.76986072    -0.38100
N2064       N  0.55170547  0.30715909  0.65265194    -0.38100
C2065       C  0.36581176  0.31163434  0.65517700    -0.04800
C2066       C  0.40121519  0.32838379  0.66494599    -0.01900
C2067       C  0.42152536  0.35926085  0.65339107     0.03100
C2068       C  0.40443014  0.37581811  0.63361426    -0.04800
C2069       C  0.36468413  0.36645074  0.62754799    -0.01900
C2070       C  0.34573245  0.33332322  0.63773509     0.03100
C2071       C  0.41747033  0.31480733  0.68660731     0.37700
C2072       C  0.34387870  0.39110199  0.61075198     0.37700
C2073       C  0.30592895  0.32176211  0.63024261     0.36100
C2074       C  0.46091018  0.37225208  0.66093899     0.36100
N2075       N  0.27415056  0.31273906  0.62419898    -0.38700
N2076       N  0.49230441  0.38284749  0.66679453    -0.38700
N2077       N  0.32771877  0.41184316  0.59771666    -0.38100
N2078       N  0.43142406  0.30641668  0.70413088    -0.38100
C2079       C  0.42255742  0.14939086  0.63203819    -0.04800
C2080       C  0.42345653  0.14898352  0.60787104    -0.01900
C2081       C  0.45273033  0.12621950  0.59635454     0.03100
C2082       C  0.47989160  0.10158301  0.60900962    -0.04800
C2083       C  0.47563963  0.09902650  0.63299841    -0.01900
C2084       C  0.45081325  0.12606788  0.64438051     0.03100
C2085       C  0.39607227  0.17423088  0.59480074     0.37700
C2086       C  0.49641382  0.06838177  0.64649026     0.37700
C2087       C  0.45729191  0.12997817  0.66870412     0.36100
C2088       C  0.45452286  0.12892294  0.57158597     0.36100
N2089       N  0.46608819  0.13030636  0.68785194    -0.38700
N2090       N  0.45582721  0.13139187  0.55184199    -0.38700
N2091       N  0.51263356  0.04421578  0.65745488    -0.38100
N2092       N  0.37436652  0.19439506  0.58433867    -0.38100
C2093       C  0.98824903  0.02261642  0.49151165    -0.04800
C2094       C  0.00645921  0.98869507  0.48139001    -0.01900
C2095       C  0.04205698  0.97239863  0.49077261     0.03100
C2096       C  0.05871611  0.98767520  0.51144948    -0.04800
C2097       C  0.04138338  0.02214978  0.52121998    -0.01900
C2098       C  0.00571392  0.03847689  0.51193948     0.03100
C2099       C  0.98867735  0.96957965  0.46151715     0.37700
C2100       C  0.06019353  0.04142119  0.54074975     0.37700
C2101       C  0.98604033  0.07047047  0.52446839     0.36100
C2102       C  0.06245736  0.94055944  0.47844398     0.36100
N2103       N  0.97049013  0.09585101  0.53459663    -0.38700
N2104       N  0.07880386  0.91529644  0.46862821    -0.38700
N2105       N  0.07537865  0.05741807  0.55605895    -0.38100
N2106       N  0.97466740  0.95355232  0.44585922    -0.38100
C2107       C  0.23326916  0.94296058  0.51756708    -0.04800
C2108       C  0.23501408  0.96250687  0.49611996    -0.01900
C2109       C  0.27105807  0.96309388  0.48356283     0.03100
C2110       C  0.30570843  0.94281893  0.49202856    -0.04800
C2111       C  0.30391917  0.92501904  0.51433111    -0.01900
C2112       C  0.26799177  0.92521768  0.52685431     0.03100
C2113       C  0.19944636  0.98195874  0.48687484     0.37700
C2114       C  0.33819425  0.90486008  0.52463277     0.37700
C2115       C  0.26603391  0.90440499  0.54877598     0.36100
C2116       C  0.27190277  0.98499628  0.46202347     0.36100
N2117       N  0.26435142  0.88765947  0.56615172    -0.38700
N2118       N  0.27241431  0.00257002  0.44487993    -0.38700
N2119       N  0.36517206  0.88866519  0.53311682    -0.38100
N2120       N  0.17107108  0.99730841  0.47945521    -0.38100
C2121       C  0.12121487  0.86151114  0.63283621    -0.04800
C2122       C  0.16238884  0.86032223  0.63819557    -0.01900
C2123       C  0.17982468  0.82413418  0.64592991     0.03100
C2124       C  0.15588383  0.78931578  0.64827177    -0.04800
C2125       C  0.11386654  0.79187062  0.64442705    -0.01900
C2126       C  0.09681631  0.82800612  0.63700216     0.03100
C2127       C  0.18718780  0.89556051  0.63452791     0.37700
C2128       C  0.08775258  0.75711050  0.64676634     0.37700
C2129       C  0.05408272  0.83019216  0.63256873     0.36100
C2130       C  0.22228067  0.82284746  0.65123521     0.36100
N2131       N  0.02006547  0.83143630  0.62899773    -0.38700
N2132       N  0.25617314  0.82169995  0.65537794    -0.38700
N2133       N  0.06668071  0.72973252  0.64874441    -0.38100
N2134       N  0.20712225  0.92357670  0.63168536    -0.38100
C2135       C  0.02985351  0.79608596  0.54244307    -0.04800
C2136       C  0.99693828  0.78663414  0.55704540    -0.01900
C2137       C  0.97487606  0.75014155  0.55470877     0.03100
C2138       C  0.98322150  0.72255436  0.53709142    -0.04800
C2139       C  0.01323552  0.73308322  0.52118593    -0.01900
C2140       C  0.03662201  0.76883489  0.52392348     0.03100
C2141       C  0.98360572  0.81495528  0.57404242     0.37700
C2142       C  0.02057820  0.70681605  0.50193160     0.37700
C2143       C  0.06751856  0.77700491  0.50722770     0.36100
C2144       C  0.94244659  0.74116493  0.57035193     0.36100
N2145       N  0.09197005  0.78334792  0.49373961    -0.38700
N2146       N  0.91634129  0.73401299  0.58263279    -0.38700
N2147       N  0.02668918  0.68641798  0.48633704    -0.38100
N2148       N  0.97169072  0.83721758  0.58750522    -0.38100
C2149       C  0.97525764  0.92947233  0.61528393    -0.04800
C2150       C  0.94078411  0.92013981  0.60248853    -0.01900
C2151       C  0.91123799  0.89518085  0.61201662     0.03100
C2152       C  0.91669722  0.87883523  0.63436874    -0.04800
C2153       C  0.95059237  0.89044105  0.64745204    -0.01900
C2154       C  0.97848170  0.91735958  0.63834840     0.03100
C2155       C  0.93712242  0.93411762  0.57898140     0.37700
C2156       C  0.95952874  0.87337451  0.66975435     0.37700
C2157       C  0.01290875  0.92894853  0.65224773     0.36100
C2158       C  0.87748750  0.88347227  0.59775341     0.36100
N2159       N  0.04006035  0.93783291  0.66351941    -0.38700
N2160       N  0.85070719  0.87413823  0.58630814    -0.38700
N2161       N  0.96929012  0.86100488  0.68744652    -0.38100
N2162       N  0.93433500  0.94500872  0.56020121    -0.38100
C2163       C  0.23460772  0.09270437  0.64264987    -0.04800
C2164       C  0.25315827  0.06205518  0.62955904    -0.01900
C2165       C  0.23113660  0.03918613  0.61316692     0.03100
C2166       C  0.18987114  0.04625724  0.60937441    -0.04800
C2167       C  0.17136205  0.07709873  0.62239541    -0.01900
C2168       C  0.19358168  0.10048633  0.63848145     0.03100
C2169       C  0.29551560  0.05432135  0.63286708     0.37700
C2170       C  0.12888653  0.08450157  0.61937702     0.37700
C2171       C  0.17426674  0.13310442  0.65053752     0.36100
C2172       C  0.25088415  0.00756410  0.60051369     0.36100
N2173       N  0.15882628  0.15920900  0.66011487    -0.38700
N2174       N  0.26674638  0.98242432  0.59035780    -0.38700
N2175       N  0.09496627  0.09028476  0.61695940    -0.38100
N2176       N  0.32934833  0.04845382  0.63559613    -0.38100
loop_ 
_geom_bond_atom_site_label_1 
_geom_bond_atom_site_label_2 
_geom_bond_distance 
_geom_bond_site_symmetry_2 
_ccdc_geom_bond_type 
O1           Ni7   1.956       .  S
O1           C22   1.277       .  A
O2          Ni25   1.982   1_545  S
O2           C11   1.291       .  A
O3           Ni7   1.906       .  S
O3          Ni25   1.939       .  S
O3          Ni19   1.927       .  S
O3           H26   0.966       .  S
C4           O21   1.272       .  A
C4           O13   1.273       .  A
C4         C2149   1.462   1_455  S
O5          Ni24   1.905       .  S
O5           C11   1.261   1_565  A
O6          Ni24   1.899       .  S
O6            C8   1.264       .  A
Ni7          O10   1.936       .  S
Ni7          O12   1.879       .  S
C8           O18   1.265       .  A
C8         C2121   1.459       .  S
O9          Ni25   1.901       .  S
O9           C15   1.268       .  A
O10          C15   1.272       .  A
C11        C2166   1.516       .  S
O12          C14   1.272       .  A
O13         Ni24   1.904       .  S
C14          O20   1.297       .  A
C14        C2096   1.500       .  S
C15        C2107   1.482       .  S
H16          O17   0.964       .  S
O17         Ni25   1.890       .  S
O17         Ni19   1.905       .  S
O17         Ni24   1.906       .  S
O18         Ni19   1.892       .  S
Ni19         O23   1.943       .  S
Ni19         O21   1.893       .  S
O20         Ni25   1.986       .  S
C22          O23   1.275       .  A
C22        C2135   1.552       .  S
O27         Ni33   1.971       .  S
O27          C48   1.278       .  A
O28         Ni51   1.963       .  S
O28          C37   1.294       .  A
O29         Ni33   1.910       .  S
O29         Ni51   1.911       .  S
O29         Ni45   1.925       .  S
O29          H52   0.957       .  S
C30          O47   1.258       .  A
C30          O39   1.281       .  A
C30        C2065   1.485       .  S
O31         Ni50   1.926       .  S
O31          C37   1.274       .  A
O32         Ni50   1.898       .  S
O32          C34   1.265       .  A
Ni33         O36   1.928       .  S
Ni33         O38   1.891       .  S
C34          O44   1.268       .  A
C34        C2079   1.483       .  S
O35         Ni51   1.921       .  S
O35          C41   1.272       .  A
O36          C41   1.270       .  A
C37        C2163   1.516       .  S
O38          C40   1.280       .  A
O39         Ni50   1.952       .  S
C40          O46   1.303       .  A
C40        C2023   1.505       .  S
C41        C2037   1.498       .  S
H42          O43   0.966       .  S
O43         Ni51   1.899       .  S
O43         Ni45   1.893       .  S
O43         Ni50   1.904       .  S
O44         Ni45   1.926       .  S
Ni45         O49   1.896       .  S
Ni45         O47   1.877       .  S
O46         Ni51   1.979       .  S
C48          O49   1.260       .  A
C48        C2054   1.526       .  S
O53         Ni59   1.914       .  S
O53          C74   1.268       .  A
O54         Ni77   1.906       .  S
O54          C63   1.268       .  A
O55         Ni59   1.898       .  S
O55         Ni77   1.892       .  S
O55         Ni71   1.902       .  S
O55          H78   0.962       .  S
C56          O73   1.275       .  A
C56          O65   1.281       .  A
C56        C1967   1.483       .  S
O57         Ni76   1.985       .  S
O57          C63   1.285       .  A
O58         Ni76   1.890       .  S
O58          C60   1.273       .  A
Ni59         O62   1.917       .  S
Ni59         O64   1.911       .  S
C60          O70   1.294       .  A
C60        C1953   1.502       .  S
O61         Ni77   1.896       .  S
O61          C67   1.269       .  A
O62          C67   1.273       .  A
C63        C1984   1.532       .  S
O64          C66   1.268       .  A
O65         Ni76   1.950       .  S
C66          O72   1.263       .  A
C66        C2068   1.460       .  S
C67        C1995   1.483       .  S
H68          O69   0.966       .  S
O69         Ni77   1.900       .  S
O69         Ni71   1.926       .  S
O69         Ni76   1.894       .  S
O70         Ni71   1.979       .  S
Ni71         O75   1.986       .  S
Ni71         O73   1.903       .  S
O72         Ni77   1.885       .  S
C74          O75   1.297       .  A
C74        C2009   1.532       .  S
O79         Ni85   1.915       .  S
O79         C100   1.269       .  A
O80        Ni103   1.906       .  S
O80          C89   1.264       .  A
O81         Ni85   1.897       .  S
O81        Ni103   1.893       .  S
O81         Ni97   1.909       .  S
O81         H104   0.965       .  S
C82          O99   1.282       .  A
C82          O91   1.279       .  A
C82        C1911   1.506       .  S
O83        Ni102   1.973       .  S
O83          C89   1.278       .  A
O84        Ni102   1.889       .  S
O84          C86   1.269       .  A
Ni85         O88   1.924       .  S
Ni85         O90   1.894       .  S
C86          O96   1.290       .  A
C86        C1900   1.484       .  S
O87        Ni103   1.870       .  S
O87          C93   1.262       .  A
O88          C93   1.276       .  A
C89        C1925   1.514       .  S
O90          C92   1.266       .  A
O91        Ni102   1.926       .  S
C92          O98   1.267       .  A
C92        C1942   1.457       .  S
C93        C2124   1.476       .  S
H94          O95   0.966       .  S
O95        Ni103   1.881       .  S
O95         Ni97   1.932       .  S
O95        Ni102   1.896       .  S
O96         Ni97   1.972       .  S
Ni97        O101   1.990       .  S
Ni97         O99   1.918       .  S
O98        Ni103   1.899       .  S
C100        O101   1.300       .  A
C100       C2012   1.533       .  S
O105       Ni111   1.891       .  S
O105        C126   1.264   1_545  A
O106       Ni129   1.900       .  S
O106        C115   1.260       .  A
O107       Ni111   1.899       .  S
O107       Ni129   1.892       .  S
O107       Ni123   1.904       .  S
O107        H130   0.962       .  S
C108        O125   1.273       .  A
C108        O117   1.276       .  A
C108       C1855   1.521       .  S
O109       Ni128   1.983       .  S
O109        C115   1.281       .  A
O110       Ni128   1.898       .  S
O110        C112   1.282       .  A
Ni111       O114   1.921       .  S
Ni111       O116   1.882       .  S
C112        O122   1.305       .  A
C112       C1844   1.512       .  S
O113       Ni129   1.887       .  S
O113        C119   1.258       .  A
O114        C119   1.270       .  A
C115       C1981   1.540       .  S
O116        C118   1.262       .  A
O117       Ni128   1.944       .  S
C118        O124   1.272       .  A
C118       C1869   1.470       .  S
C119       C2082   1.491       .  S
H120        O121   0.958       .  S
O121       Ni129   1.929       .  S
O121       Ni123   1.919       .  S
O121       Ni128   1.900       .  S
O122       Ni123   1.995       .  S
Ni123       O127   1.979   1_545  S
Ni123       O125   1.924       .  S
O124       Ni129   1.940       .  S
C126        O127   1.298       .  A
C126       C1883   1.512       .  S
O131       Ni137   1.886       .  S
O131        C152   1.262       .  A
O132       Ni155   1.916       .  S
O132        C141   1.266       .  A
O133       Ni137   1.916       .  S
O133       Ni155   1.912       .  S
O133       Ni149   1.916       .  S
O133        H156   0.966       .  S
C134        O151   1.271       .  A
C134        O143   1.269       .  A
C134       C1816   1.482       .  S
O135       Ni154   1.972       .  S
O135        C141   1.280       .  A
O136       Ni154   1.879       .  S
O136        C138   1.275       .  A
Ni137       O140   1.918       .  S
Ni137       O142   1.880       .  S
C138        O148   1.301       .  A
C138       C1799   1.499       .  S
O139       Ni155   1.873       .  S
O139        C145   1.256       .  A
O140        C145   1.265       .  A
C141       C1928   1.533       .  S
O142        C144   1.263       .  A
O143       Ni154   1.925       .  S
C144        O150   1.275       .  A
C144       C2152   1.481       .  S
C145       C1827   1.446       .  S
H146        O147   0.960       .  S
O147       Ni155   1.911       .  S
O147       Ni149   1.929       .  S
O147       Ni154   1.916       .  S
O148       Ni149   1.985       .  S
Ni149       O153   1.983       .  S
Ni149       O151   1.920       .  S
O150       Ni155   1.942       .  S
C152        O153   1.295       .  A
C152       C1886   1.517       .  S
O157       Ni163   1.968       .  S
O157        C178   1.278       .  A
O158       Ni181   1.985       .  S
O158        C167   1.298       .  A
O159       Ni163   1.920       .  S
O159       Ni181   1.929       .  S
O159       Ni175   1.924       .  S
O159        H182   0.966       .  S
C160        O177   1.261       .  A
C160        O169   1.272       .  A
C160       C1939   1.474       .  S
O161       Ni180   1.896       .  S
O161        C167   1.264       .  A
O162       Ni180   1.877       .  S
O162        C164   1.258       .  A
Ni163       O166   1.935       .  S
Ni163       O168   1.890       .  S
C164        O174   1.269       .  A
C164       C1830   1.448       .  S
O165       Ni181   1.920       .  S
O165        C171   1.273       .  A
O166        C171   1.270       .  A
C167       C1785   1.533       .  S
O168        C170   1.279       .  A
O169       Ni180   1.922   1_455  S
C170        O176   1.302       .  A
C170       C1760   1.499       .  S
C171       C1771   1.494       .  S
H172        O173   0.966       .  S
O173       Ni181   1.911       .  S
O173       Ni175   1.913       .  S
O173       Ni180   1.909       .  S
O174       Ni175   1.913       .  S
Ni175       O179   1.920       .  S
Ni175       O177   1.889   1_655  S
O176       Ni181   1.984       .  S
C178        O179   1.267       .  A
C178       C2138   1.521       .  S
O183       Ni189   1.975       .  S
O183        C204   1.282       .  A
O184       Ni207   1.995       .  S
O184        C193   1.300       .  A
O185       Ni189   1.898       .  S
O185       Ni207   1.935       .  S
O185       Ni201   1.914       .  S
O185        H208   0.964       .  S
C186        O203   1.273       .  A
C186        O195   1.273       .  A
C186       C1872   1.464       .  S
O187       Ni206   1.903       .  S
O187        C193   1.264       .  A
O188       Ni206   1.914       .  S
O188        C190   1.266       .  A
Ni189       O192   1.932       .  S
Ni189       O194   1.885       .  S
C190        O200   1.264       .  A
C190       C1998   1.471       .  S
O191       Ni207   1.919       .  S
O191        C197   1.277       .  A
O192        C197   1.277       .  A
C193       C1788   1.527       .  S
O194        C196   1.274       .  A
O195       Ni206   1.905       .  S
C196        O202   1.298       .  A
C196       C1732   1.504       .  S
C197       C1743   1.500       .  S
H198        O199   0.965       .  S
O199       Ni207   1.897       .  S
O199       Ni201   1.882       .  S
O199       Ni206   1.890       .  S
O200       Ni201   1.897       .  S
Ni201       O205   1.893       .  S
Ni201       O203   1.906       .  S
O202       Ni207   1.981       .  S
C204        O205   1.265       .  A
C204       C2051   1.526       .  S
O209       Ni215   1.954       .  S
O209        C230   1.279       .  A
O210       Ni233   1.967       .  S
O210        C219   1.290       .  A
O211       Ni215   1.903       .  S
O211       Ni233   1.923       .  S
O211       Ni227   1.929       .  S
O211        H234   0.966       .  S
C212        O229   1.274       .  A
C212        O221   1.272       .  A
C212       C1701   1.459       .  S
O213       Ni232   1.897       .  S
O213        C219   1.262       .  A
O214       Ni232   1.900       .  S
O214        C216   1.265       .  A
Ni215       O218   1.936       .  S
Ni215       O220   1.884       .  S
C216        O226   1.270       .  A
C216       C1687   1.465       .  S
O217       Ni233   1.925       .  S
O217        C223   1.273       .  A
O218        C223   1.271       .  A
C219       C1715   1.503       .  S
O220        C222   1.275       .  A
O221       Ni232   1.903       .  S
C222        O228   1.299       .  A
C222       C1645   1.500       .  S
C223       C1659   1.507       .  S
H224        O225   0.965       .  S
O225       Ni233   1.902       .  S
O225       Ni227   1.898       .  S
O225       Ni232   1.896       .  S
O226       Ni227   1.907       .  S
Ni227       O231   1.936       .  S
Ni227       O229   1.903       .  S
O228       Ni233   1.986       .  S
C230        O231   1.275       .  A
C230       C1673   1.526       .  S
O235       Ni241   1.961       .  S
O235        C256   1.282       .  A
O236       Ni259   1.978       .  S
O236        C245   1.295       .  A
O237       Ni241   1.893       .  S
O237       Ni259   1.924       .  S
O237       Ni253   1.926       .  S
O237        H260   0.965       .  S
C238        O255   1.285       .  A
C238        O247   1.273       .  A
C238       C1620   1.459       .  S
O239       Ni258   1.904       .  S
O239        C245   1.263       .  A
O240       Ni258   1.904       .  S
O240        C242   1.263       .  A
Ni241       O244   1.936       .  S
Ni241       O246   1.876       .  S
C242        O252   1.267       .  A
C242       C1631   1.468       .  S
O243       Ni259   1.921       .  S
O243        C249   1.273       .  A
O244        C249   1.273       .  A
C245       C1718   1.507       .  S
O246        C248   1.273       .  A
O247       Ni258   1.896       .  S
C248        O254   1.298       .  A
C248       C1575   1.499       .  S
C249       C1592   1.516       .  S
H250        O251   0.964       .  S
O251       Ni259   1.890       .  S
O251       Ni253   1.880       .  S
O251       Ni258   1.871       .  S
O252       Ni253   1.909       .  S
Ni253       O257   1.924       .  S
Ni253       O255   1.932       .  S
O254       Ni259   1.982       .  S
C256        O257   1.276       .  A
C256       C1606   1.508       .  S
O261       Ni267   1.905   1_545  S
O261        C282   1.267       .  A
O262       Ni285   1.922       .  S
O262        C271   1.268       .  A
O263       Ni267   1.908       .  S
O263       Ni285   1.908       .  S
O263       Ni279   1.911       .  S
O263        H286   0.963       .  S
C264        O281   1.272       .  A
C264        O273   1.261       .  A
C264       C1522   1.503       .  S
O265       Ni284   1.952       .  S
O265        C271   1.275       .  A
O266       Ni284   1.877       .  S
O266        C268   1.275       .  A
Ni267       O270   1.934       .  S
Ni267       O272   1.877       .  S
C268        O278   1.303       .  A
C268       C1508   1.494       .  S
O269       Ni285   1.868   1_455  S
O269        C275   1.257       .  A
O270        C275   1.270   1_655  A
C271       C1561   1.521   1_655  S
O272        C274   1.262       .  A
O273       Ni284   1.916       .  S
C274        O280   1.276       .  A
C274       C1704   1.479       .  S
C275       C1536   1.455       .  S
H276        O277   0.961       .  S
O277       Ni285   1.911       .  S
O277       Ni279   1.924       .  S
O277       Ni284   1.903       .  S
O278       Ni279   1.999       .  S
Ni279       O283   1.975   1_565  S
Ni279       O281   1.931       .  S
O280       Ni285   1.945       .  S
C282        O283   1.294       .  A
C282       C1550   1.517       .  S
O287       Ni293   1.917       .  S
O287        C308   1.272       .  A
O288       Ni311   1.937       .  S
O288        C297   1.271       .  A
O289       Ni293   1.902       .  S
O289       Ni311   1.908       .  S
O289       Ni305   1.911       .  S
O289        H312   0.956       .  S
C290        O307   1.273       .  A
C290        O299   1.269       .  A
C290       C1466   1.497       .  S
O291       Ni310   1.948       .  S
O291        C297   1.274       .  A
O292       Ni310   1.895       .  S
O292        C294   1.281       .  A
Ni293       O296   1.931       .  S
Ni293       O298   1.887       .  S
C294        O304   1.299       .  A
C294       C1449   1.507       .  S
O295       Ni311   1.894       .  S
O295        C301   1.266       .  A
O296        C301   1.277       .  A
C297       C1477   1.514       .  S
O298        C300   1.264       .  A
O299       Ni310   1.929       .  S
C300        O306   1.268       .  A
C300       C1491   1.462       .  S
C301       C1634   1.481       .  S
H302        O303   0.966       .  S
O303       Ni311   1.941       .  S
O303       Ni305   1.924       .  S
O303       Ni310   1.904       .  S
O304       Ni305   1.978       .  S
Ni305       O309   1.973       .  S
Ni305       O307   1.930       .  S
O306       Ni311   1.916       .  S
C308        O309   1.295       .  A
C308       C1547   1.531       .  S
O313       Ni319   1.954       .  S
O313        C334   1.275       .  A
O314       Ni337   1.965       .  S
O314        C323   1.293       .  A
O315       Ni319   1.904       .  S
O315       Ni337   1.919       .  S
O315       Ni331   1.922       .  S
O315        H338   0.966       .  S
C316        O333   1.260       .  A
C316        O325   1.274       .  A
C316       C1421   1.459       .  S
O317       Ni336   1.917       .  S
O317        C323   1.272       .  A
O318       Ni336   1.888       .  S
O318        C320   1.263       .  A
Ni319       O322   1.928       .  S
Ni319       O324   1.888       .  S
C320        O330   1.273       .  A
C320       C1533   1.454       .  S
O321       Ni337   1.914       .  S
O321        C327   1.266       .  A
O322        C327   1.267       .  A
C323       C1435   1.523       .  S
O324        C326   1.277       .  A
O325       Ni336   1.939       .  S
C326        O332   1.304       .  A
C326       C1393   1.518       .  S
C327       C1407   1.476       .  S
H328        O329   0.965       .  S
O329       Ni337   1.905       .  S
O329       Ni331   1.904       .  S
O329       Ni336   1.910       .  S
O330       Ni331   1.931       .  S
Ni331       O335   1.915       .  S
Ni331       O333   1.875       .  S
O332       Ni337   1.995       .  S
C334        O335   1.265       .  A
C334       C1676   1.515       .  S
O339       Ni345   1.960       .  S
O339        C360   1.276       .  A
O340       Ni363   1.973       .  S
O340        C349   1.294   1_545  A
O341       Ni345   1.905       .  S
O341       Ni363   1.931       .  S
O341       Ni357   1.910       .  S
O341        H364   0.961       .  S
C342        O359   1.253       .  A
C342        O351   1.272       .  A
C342       C1494   1.454       .  S
O343       Ni362   1.909       .  S
O343        C349   1.269   1_545  A
O344       Ni362   1.892       .  S
O344        C346   1.263       .  A
Ni345       O348   1.926       .  S
Ni345       O350   1.878       .  S
C346        O356   1.272       .  A
C346       C1379   1.483       .  S
O347       Ni363   1.916       .  S
O347        C353   1.270       .  A
O348        C353   1.268       .  A
C349       C1438   1.517       .  S
O350        C352   1.271       .  A
O351       Ni362   1.947       .  S
C352        O358   1.302       .  A
C352       C1351   1.503       .  S
C353       C1365   1.480       .  S
H354        O355   0.965       .  S
O355       Ni363   1.904       .  S
O355       Ni357   1.901       .  S
O355       Ni362   1.916       .  S
O356       Ni357   1.938       .  S
Ni357       O361   1.904       .  S
Ni357       O359   1.863       .  S
O358       Ni363   2.000       .  S
C360        O361   1.262       .  A
C360       C1603   1.524       .  S
O365       Ni371   1.888       .  S
O365        C386   1.256       .  A
O366       Ni389   1.919       .  S
O366        C375   1.268       .  A
O367       Ni371   1.896       .  S
O367       Ni389   1.886       .  S
O367       Ni383   1.900       .  S
O367        H390   0.963       .  S
C368        O385   1.278       .  A
C368        O377   1.270       .  A
C368       C1323   1.495       .  S
O369       Ni388   1.962       .  S
O369        C375   1.279       .  A
O370       Ni388   1.883       .  S
O370        C372   1.274       .  A
Ni371       O374   1.908       .  S
Ni371       O376   1.892       .  S
C372        O382   1.299       .  A
C372       C1309   1.496       .  S
O373       Ni389   1.894       .  S
O373        C379   1.273       .  A
O374        C379   1.275       .  A
C375       C1480   1.535       .  S
O376        C378   1.261       .  A
O377       Ni388   1.930       .  S
C378        O384   1.259       .  A
C378       C1617   1.484       .  S
C379       C1382   1.461       .  S
H380        O381   0.962       .  S
O381       Ni389   1.927       .  S
O381       Ni383   1.938       .  S
O381       Ni388   1.897       .  S
O382       Ni383   1.991       .  S
Ni383       O387   1.996       .  S
Ni383       O385   1.935       .  S
O384       Ni389   1.888       .  S
C386        O387   1.297       .  A
C386       C1337   1.521       .  S
O391       Ni397   1.911       .  S
O391        C412   1.270       .  A
O392       Ni415   1.907       .  S
O392        C401   1.262       .  A
O393       Ni397   1.916       .  S
O393       Ni415   1.902       .  S
O393       Ni409   1.925       .  S
O393        H416   0.966       .  S
C394        O411   1.275       .  A
C394        O403   1.270       .  A
C394       C1295   1.504       .  S
O395       Ni414   1.962       .  S
O395        C401   1.277       .  A
O396       Ni414   1.892       .  S
O396        C398   1.279       .  A
Ni397       O400   1.945       .  S
Ni397       O402   1.865       .  S
C398        O408   1.299       .  A
C398       C1284   1.503       .  S
O399       Ni415   1.881       .  S
O399        C405   1.255       .  A
O400        C405   1.273       .  A
C401       C1564   1.518       .  S
O402        C404   1.257       .  A
O403       Ni414   1.926       .  S
C404        O410   1.274       .  A
C404       C1424   1.448       .  S
C405       C1690   1.468   1_455  S
H406        O407   0.966       .  S
O407       Ni415   1.927       .  S
O407       Ni409   1.922       .  S
O407       Ni414   1.909       .  S
O408       Ni409   1.969       .  S
Ni409       O413   1.971       .  S
Ni409       O411   1.934       .  S
O410       Ni415   1.930       .  S
C412        O413   1.296       .  A
C412       C1340   1.526       .  S
O417       Ni423   1.973       .  S
O417        C438   1.279       .  A
O418       Ni441   1.984       .  S
O418        C427   1.296       .  A
O419       Ni423   1.897       .  S
O419       Ni441   1.927       .  S
O419       Ni435   1.884       .  S
O419        H442   0.965       .  S
C420        O437   1.262       .  A
C420        O429   1.274       .  A
C420       C1253   1.485       .  S
O421       Ni440   1.908       .  S
O421        C427   1.266       .  A
O422       Ni440   1.884       .  S
O422        C424   1.263       .  A
Ni423       O426   1.937       .  S
Ni423       O428   1.886       .  S
C424        O434   1.268       .  A
C424       C1228   1.460       .  S
O425       Ni441   1.915       .  S
O425        C431   1.280       .  A
O426        C431   1.281       .  A
C427       C1267   1.525       .  S
O428        C430   1.268       .  A
O429       Ni440   1.914       .  S
C430        O436   1.291       .  A
C430       C1897   1.484       .  S
C431       C2040   1.511       .  S
H432        O433   0.965       .  S
O433       Ni441   1.912       .  S
O433       Ni435   1.899       .  S
O433       Ni440   1.902       .  S
O434       Ni435   1.900       .  S
Ni435       O439   1.904       .  S
Ni435       O437   1.876       .  S
O436       Ni441   1.974       .  S
C438        O439   1.264       .  A
C438       C1239   1.511       .  S
O443       Ni449   1.967       .  S
O443        C464   1.280       .  A
O444       Ni467   1.982       .  S
O444        C453   1.295   1_545  A
O445       Ni449   1.892       .  S
O445       Ni467   1.932       .  S
O445       Ni461   1.911       .  S
O445        H468   0.966       .  S
C446        O463   1.276       .  A
C446        O455   1.272       .  A
C446       C1197   1.478   1_455  S
O447       Ni466   1.909       .  S
O447        C453   1.265   1_545  A
O448       Ni466   1.902       .  S
O448        C450   1.266       .  A
Ni449       O452   1.940       .  S
Ni449       O454   1.878       .  S
C450        O460   1.262       .  A
C450       C1211   1.451       .  S
O451       Ni467   1.902       .  S
O451        C457   1.271       .  A
O452        C457   1.277       .  A
C453       C1270   1.524       .  S
O454        C456   1.270       .  A
O455       Ni466   1.906       .  S
C456        O462   1.295       .  A
C456       C1505   1.498       .  S
C457       C1368   1.475       .  S
H458        O459   0.961       .  S
O459       Ni467   1.895       .  S
O459       Ni461   1.891       .  S
O459       Ni466   1.887       .  S
O460       Ni461   1.883       .  S
Ni461       O465   1.922       .  S
Ni461       O463   1.908       .  S
O462       Ni467   1.982       .  S
C464        O465   1.272       .  A
C464       C1183   1.514       .  S
O469       Ni475   1.960       .  S
O469        C490   1.276       .  A
O470       Ni493   1.975       .  S
O470        C479   1.293       .  A
O471       Ni475   1.917       .  S
O471       Ni493   1.935       .  S
O471       Ni487   1.913       .  S
O471        H494   0.963       .  S
C472        O489   1.256       .  A
C472        O481   1.266       .  A
C472       C1155   1.456       .  S
O473       Ni492   1.896       .  S
O473        C479   1.263       .  A
O474       Ni492   1.877       .  S
O474        C476   1.262       .  A
Ni475       O478   1.930       .  S
Ni475       O480   1.883       .  S
C476        O486   1.276       .  A
C476       C1141   1.454       .  S
O477       Ni493   1.918       .  S
O477        C483   1.271       .  A
O478        C483   1.273       .  A
C479       C1169   1.512       .  S
O480        C482   1.272       .  A
O481       Ni492   1.924       .  S
C482        O488   1.299       .  A
C482       C1802   1.498       .  S
C483       C1746   1.507       .  S
H484        O485   0.966       .  S
O485       Ni493   1.917       .  S
O485       Ni487   1.908       .  S
O485       Ni492   1.922       .  S
O486       Ni487   1.939       .  S
Ni487       O491   1.914       .  S
Ni487       O489   1.874       .  S
O488       Ni493   1.978       .  S
C490        O491   1.265       .  A
C490       C1242   1.525       .  S
O495       Ni501   1.977       .  S
O495        C516   1.280       .  A
O496       Ni519   1.976       .  S
O496        C505   1.295       .  A
O497       Ni501   1.918       .  S
O497       Ni519   1.923       .  S
O497       Ni513   1.909       .  S
O497        H520   0.959       .  S
C498        O515   1.253       .  A
C498        O507   1.268       .  A
C498       C1127   1.450       .  S
O499       Ni518   1.901       .  S
O499        C505   1.267       .  A
O500       Ni518   1.886       .  S
O500        C502   1.265       .  A
Ni501       O504   1.931       .  S
Ni501       O506   1.880       .  S
C502        O512   1.273       .  A
C502       C1113   1.473       .  S
O503       Ni519   1.917       .  S
O503        C509   1.274       .  A
O504        C509   1.271       .  A
C505       C1172   1.516       .  S
O506        C508   1.275       .  A
O507       Ni518   1.935   1_455  S
C508        O514   1.297       .  A
C508       C1281   1.498   1_655  S
C509       C1589   1.489       .  S
H510        O511   0.966       .  S
O511       Ni519   1.912       .  S
O511       Ni513   1.902       .  S
O511       Ni518   1.917       .  S
O512       Ni513   1.938       .  S
Ni513       O517   1.901       .  S
Ni513       O515   1.866   1_655  S
O514       Ni519   1.972       .  S
C516        O517   1.261       .  A
C516       C1186   1.530   1_655  S
O521       Ni527   1.892       .  S
O521        C542   1.259       .  A
O522       Ni545   1.928       .  S
O522        C531   1.274       .  A
O523       Ni527   1.888       .  S
O523       Ni545   1.882       .  S
O523       Ni539   1.894       .  S
O523        H546   0.966       .  S
C524        O541   1.274       .  A
C524        O533   1.276       .  A
C524       C1813   1.487       .  S
O525       Ni544   1.965       .  S
O525        C531   1.280       .  A
O526       Ni544   1.881       .  S
O526        C528   1.270       .  A
Ni527       O530   1.893       .  S
Ni527       O532   1.905       .  S
C528        O538   1.297       .  A
C528       C1729   1.507       .  S
O529       Ni545   1.914       .  S
O529        C535   1.281       .  A
O530        C535   1.272       .  A
C531       C1085   1.542       .  S
O532        C534   1.264       .  A
O533       Ni544   1.935       .  S
C534        O540   1.266       .  A
C534       C1200   1.467       .  S
C535       C1116   1.457       .  S
H536        O537   0.964       .  S
O537       Ni545   1.921       .  S
O537       Ni539   1.939       .  S
O537       Ni544   1.900       .  S
O538       Ni539   1.981       .  S
Ni539       O543   1.989       .  S
Ni539       O541   1.917       .  S
O540       Ni545   1.904       .  S
C542        O543   1.296       .  A
C542       C1099   1.519       .  S
O547       Ni553   1.900       .  S
O547        C568   1.266   1_565  A
O548       Ni571   1.934       .  S
O548        C557   1.271       .  A
O549       Ni553   1.901       .  S
O549       Ni571   1.904       .  S
O549       Ni565   1.895       .  S
O549        H572   0.961       .  S
C550        O567   1.269       .  A
C550        O559   1.268       .  A
C550       C1519   1.482       .  S
O551       Ni570   1.953       .  S
O551        C557   1.275       .  A
O552       Ni570   1.888       .  S
O552        C554   1.279       .  A
Ni553       O556   1.917       .  S
Ni553       O558   1.878       .  S
C554        O564   1.305       .  A
C554       C1354   1.505       .  S
O555       Ni571   1.878       .  S
O555        C561   1.262       .  A
O556        C561   1.273       .  A
C557       C1071   1.518       .  S
O558        C560   1.260       .  A
O559       Ni570   1.929       .  S
C560        O566   1.269       .  A
C560       C1158   1.454       .  S
C561       C1225   1.471       .  S
H562        O563   0.965       .  S
O563       Ni571   1.928       .  S
O563       Ni565   1.928       .  S
O563       Ni570   1.906       .  S
O564       Ni565   1.998       .  S
Ni565       O569   1.978   1_565  S
Ni565       O567   1.913       .  S
O566       Ni571   1.923       .  S
C568        O569   1.297       .  A
C568       C1102   1.522       .  S
O573       Ni579   1.927       .  S
O573        C594   1.273       .  A
O574       Ni597   1.922       .  S
O574        C583   1.268       .  A
O575       Ni579   1.901       .  S
O575       Ni597   1.913       .  S
O575       Ni591   1.904       .  S
O575        H598   0.966       .  S
C576        O593   1.273       .  A
C576        O585   1.266       .  A
C576       C1914   1.492       .  S
O577       Ni596   1.955       .  S
O577        C583   1.273       .  A
O578       Ni596   1.896       .  S
O578        C580   1.281       .  A
Ni579       O582   1.940       .  S
Ni579       O584   1.881       .  S
C580        O590   1.304       .  A
C580       C2026   1.507       .  S
O581       Ni597   1.878       .  S
O581        C587   1.260       .  A
O582        C587   1.279       .  A
C583       C1088   1.516       .  S
O584        C586   1.261       .  A
O585       Ni596   1.917       .  S
C586        O592   1.266       .  A
C586       C1130   1.452       .  S
C587       C1214   1.475       .  S
H588        O589   0.966       .  S
O589       Ni597   1.920       .  S
O589       Ni591   1.928       .  S
O589       Ni596   1.915       .  S
O590       Ni591   1.989       .  S
Ni591       O595   1.983       .  S
Ni591       O593   1.925       .  S
O592       Ni597   1.912       .  S
C594        O595   1.299       .  A
C594       C1057   1.547       .  S
O599       Ni605   1.912       .  S
O599        C620   1.270       .  A
O600       Ni623   1.935       .  S
O600        C609   1.272       .  A
O601       Ni605   1.898       .  S
O601       Ni623   1.908       .  S
O601       Ni617   1.901       .  S
O601        H624   0.966       .  S
C602        O619   1.274       .  A
C602        O611   1.267       .  A
C602       C1298   1.513       .  S
O603       Ni622   1.954       .  S
O603        C609   1.275       .  A
O604       Ni622   1.891       .  S
O604        C606   1.280       .  A
Ni605       O608   1.935       .  S
Ni605       O610   1.886       .  S
C606        O616   1.305       .  A
C606       C1578   1.508       .  S
O607       Ni623   1.884       .  S
O607        C613   1.263       .  A
O608        C613   1.277       .  A
C609       C1074   1.537       .  S
O610        C612   1.260       .  A
O611       Ni622   1.920       .  S
C612        O618   1.269       .  A
C612       C1256   1.452       .  S
C613       C1144   1.479       .  S
H614        O615   0.964       .  S
O615       Ni623   1.930       .  S
O615       Ni617   1.930       .  S
O615       Ni622   1.902       .  S
O616       Ni617   1.986       .  S
Ni617       O621   1.988       .  S
Ni617       O619   1.931       .  S
O618       Ni623   1.922       .  S
C620        O621   1.300       .  A
C620       C1060   1.532       .  S
O625       Ni631   1.901       .  S
O625        C646   1.261       .  A
O626       Ni649   1.939       .  S
O626        C635   1.275       .  A
O627       Ni631   1.893       .  S
O627       Ni649   1.902       .  S
O627       Ni643   1.887       .  S
O627        H650   0.966       .  S
C628        O645   1.268       .  A
C628        O637   1.269       .  A
C628       C1970   1.509       .  S
O629       Ni648   1.954       .  S
O629        C635   1.279       .  A
O630       Ni648   1.877       .  S
O630        C632   1.274       .  A
Ni631       O634   1.903       .  S
Ni631       O636   1.892       .  S
C632        O642   1.300       .  A
C632       C1757   1.497       .  S
O633       Ni649   1.893       .  S
O633        C639   1.273       .  A
O634        C639   1.274       .  A
C635       C1004   1.535       .  S
O636        C638   1.261       .  A
O637       Ni648   1.933       .  S
C638        O644   1.263       .  A
C638       C1018   1.490       .  S
C639       C1032   1.458   1_455  S
H640        O641   0.965       .  S
O641       Ni649   1.930       .  S
O641       Ni643   1.924       .  S
O641       Ni648   1.904       .  S
O642       Ni643   1.981       .  S
Ni643       O647   1.975       .  S
Ni643       O645   1.914       .  S
O644       Ni649   1.889       .  S
C646        O647   1.290       .  A
C646       C1046   1.512       .  S
O651       Ni657   1.909       .  S
O651        C672   1.269       .  A
O652       Ni675   1.942       .  S
O652        C661   1.273       .  A
O653       Ni657   1.903       .  S
O653       Ni675   1.909       .  S
O653       Ni669   1.907       .  S
O653        H676   0.964       .  S
C654        O671   1.270       .  A
C654        O663   1.266       .  A
C654       C1326   1.484       .  S
O655       Ni674   1.947       .  S
O655        C661   1.274       .  A
O656       Ni674   1.888       .  S
O656        C658   1.278       .  A
Ni657       O660   1.918       .  S
Ni657       O662   1.874       .  S
C658        O668   1.303       .  A
C658       C1396   1.518       .  S
O659       Ni675   1.891       .  S
O659        C665   1.264       .  A
O660        C665   1.273       .  A
C661        C959   1.518       .  S
O662        C664   1.260       .  A
O663       Ni674   1.925       .  S
C664        O670   1.272       .  A
C664        C987   1.480       .  S
C665        C973   1.481       .  S
H666        O667   0.966       .  S
O667       Ni675   1.935       .  S
O667       Ni669   1.923       .  S
O667       Ni674   1.905       .  S
O668       Ni669   1.991       .  S
Ni669       O673   1.969       .  S
Ni669       O671   1.926       .  S
O670       Ni675   1.920       .  S
C672        O673   1.295       .  A
C672       C1043   1.525       .  S
O677       Ni683   1.903       .  S
O677        C698   1.263   1_545  A
O678       Ni701   1.914       .  S
O678        C687   1.267       .  A
O679       Ni683   1.882       .  S
O679       Ni701   1.876       .  S
O679       Ni695   1.894       .  S
O679        H702   0.963       .  S
C680        O697   1.273       .  A
C680        O689   1.277       .  A
C680       C1858   1.512       .  S
O681       Ni700   1.965       .  S
O681        C687   1.280       .  A
O682       Ni700   1.889       .  S
O682        C684   1.277       .  A
Ni683       O686   1.904   1_655  S
Ni683       O688   1.906       .  S
C684        O694   1.300       .  A
C684       C2093   1.508       .  S
O685       Ni701   1.920   1_455  S
O685        C691   1.280       .  A
O686        C691   1.275       .  A
C687       C1001   1.512       .  S
O688        C690   1.263       .  A
O689       Ni700   1.946       .  S
C690        O696   1.261       .  A
C690        C920   1.466       .  S
C691        C931   1.469       .  S
H692        O693   0.966       .  S
O693       Ni701   1.943       .  S
O693       Ni695   1.925       .  S
O693       Ni700   1.893       .  S
O694       Ni695   1.990       .  S
Ni695       O699   1.979   1_545  S
Ni695       O697   1.922       .  S
O696       Ni701   1.878       .  S
C698        O699   1.295       .  A
C698        C945   1.533       .  S
O703       Ni709   1.886       .  S
O703        C724   1.251       .  A
O704       Ni727   1.927       .  S
O704        C713   1.272       .  A
O705       Ni709   1.892       .  S
O705       Ni727   1.884       .  S
O705       Ni721   1.911       .  S
O705        H728   0.966       .  S
C706        O723   1.281       .  A
C706        O715   1.277       .  A
C706       C1463   1.523       .  S
O707       Ni726   1.961       .  S
O707        C713   1.279       .  A
O708       Ni726   1.893       .  S
O708        C710   1.272       .  A
Ni709       O712   1.902       .  S
Ni709       O714   1.883       .  S
C710        O720   1.290       .  A
C710       C1648   1.493       .  S
O711       Ni727   1.901       .  S
O711        C717   1.277       .  A
O712        C717   1.275       .  A
C713        C962   1.518       .  S
O714        C716   1.258       .  A
O715       Ni726   1.930       .  S
C716        O722   1.267       .  A
C716        C903   1.469       .  S
C717        C889   1.456       .  S
H718        O719   0.962       .  S
O719       Ni727   1.912       .  S
O719       Ni721   1.940       .  S
O719       Ni726   1.893       .  S
O720       Ni721   1.961       .  S
Ni721       O725   2.000       .  S
Ni721       O723   1.931       .  S
O722       Ni727   1.909       .  S
C724        O725   1.293       .  A
C724        C948   1.531       .  S
O729       Ni735   1.955       .  S
O729        C750   1.280       .  A
O730       Ni753   1.996   1_545  S
O730        C739   1.300       .  A
O731       Ni735   1.882       .  S
O731       Ni753   1.931       .  S
O731       Ni747   1.926       .  S
O731        H754   0.964       .  S
C732        O749   1.284       .  A
C732        O741   1.274       .  A
C732        C906   1.458       .  S
O733       Ni752   1.901       .  S
O733        C739   1.261   1_565  A
O734       Ni752   1.897       .  S
O734        C736   1.262       .  A
Ni735       O738   1.937       .  S
Ni735       O740   1.885       .  S
C736        O746   1.266       .  A
C736        C976   1.463       .  S
O737       Ni753   1.916       .  S
O737        C743   1.273       .  A
O738        C743   1.272       .  A
C739        C875   1.518       .  S
O740        C742   1.275       .  A
O741       Ni752   1.892       .  S
C742        O748   1.304       .  A
C742       C1841   1.505       .  S
C743       C2110   1.512       .  S
H744        O745   0.960       .  S
O745       Ni753   1.881       .  S
O745       Ni747   1.875       .  S
O745       Ni752   1.874       .  S
O746       Ni747   1.903       .  S
Ni747       O751   1.938       .  S
Ni747       O749   1.916       .  S
O748       Ni753   2.008       .  S
C750        O751   1.277       .  A
C750        C861   1.516       .  S
O755       Ni761   1.966       .  S
O755        C776   1.277       .  A
O756       Ni779   1.979       .  S
O756        C765   1.295       .  A
O757       Ni761   1.909       .  S
O757       Ni779   1.921       .  S
O757       Ni773   1.914       .  S
O757        H780   0.961       .  S
C758        O775   1.255       .  A
C758        O767   1.268       .  A
C758       C1015   1.467       .  S
O759       Ni778   1.890       .  S
O759        C765   1.263       .  A
O760       Ni778   1.885       .  S
O760        C762   1.264       .  A
Ni761       O764   1.926       .  S
Ni761       O766   1.889       .  S
C762        O772   1.278       .  A
C762        C934   1.487       .  S
O763       Ni779   1.918       .  S
O763        C769   1.272       .  A
O764        C769   1.270       .  A
C765        C878   1.519       .  S
O766        C768   1.279       .  A
O767       Ni778   1.911       .  S
C768        O774   1.300       .  A
C768       C1312   1.498       .  S
C769       C1410   1.488       .  S
H770        O771   0.962       .  S
O771       Ni779   1.918       .  S
O771       Ni773   1.910       .  S
O771       Ni778   1.909       .  S
O772       Ni773   1.947       .  S
Ni773       O777   1.911       .  S
Ni773       O775   1.879       .  S
O774       Ni779   1.987       .  S
C776        O777   1.266       .  A
C776        C847   1.532       .  S
O781       Ni787   1.958       .  S
O781        C802   1.278       .  A
O782       Ni805   1.984       .  S
O782        C791   1.301       .  A
O783       Ni787   1.876       .  S
O783       Ni805   1.920       .  S
O783       Ni799   1.935       .  S
O783        H806   0.964       .  S
C784        O801   1.265       .  A
C784        O793   1.274       .  A
C784        C990   1.460       .  S
O785       Ni804   1.902       .  S
O785        C791   1.269       .  A
O786       Ni804   1.909       .  S
O786        C788   1.268       .  A
Ni787       O790   1.928       .  S
Ni787       O792   1.884       .  S
C788        O798   1.261       .  A
C788        C892   1.476       .  S
O789       Ni805   1.932       .  S
O789        C795   1.274       .  A
O790        C795   1.267       .  A
C791        C833   1.530       .  S
O792        C794   1.279       .  A
O793       Ni804   1.923       .  S
C794        O800   1.308       .  A
C794       C1956   1.503       .  S
C795       C1774   1.515       .  S
H796        O797   0.964       .  S
O797       Ni805   1.892       .  S
O797       Ni799   1.895       .  S
O797       Ni804   1.897       .  S
O798       Ni799   1.901       .  S
Ni799       O803   1.923       .  S
Ni799       O801   1.880       .  S
O800       Ni805   2.006       .  S
C802        O803   1.267       .  A
C802        C864   1.527       .  S
O807       Ni813   1.975       .  S
O807        C828   1.280       .  A
O808       Ni831   1.973       .  S
O808        C817   1.295       .  A
O809       Ni813   1.907       .  S
O809       Ni831   1.921       .  S
O809       Ni825   1.910       .  S
O809        H832   0.958       .  S
C810        O827   1.254       .  A
C810        O819   1.272       .  A
C810        C917   1.463       .  S
O811       Ni830   1.908       .  S
O811        C817   1.269       .  A
O812       Ni830   1.883       .  S
O812        C814   1.262       .  A
Ni813       O816   1.935       .  S
Ni813       O818   1.884       .  S
C814        O824   1.275       .  A
C814       C1029   1.484       .  S
O815       Ni831   1.917       .  S
O815        C821   1.271       .  A
O816        C821   1.270       .  A
C817        C836   1.530       .  S
O818        C820   1.275       .  A
O819       Ni830   1.942       .  S
C820        O826   1.298       .  A
C820       C1452   1.509       .  S
C821       C1662   1.484       .  S
H822        O823   0.966       .  S
O823       Ni831   1.910       .  S
O823       Ni825   1.905       .  S
O823       Ni830   1.913       .  S
O824       Ni825   1.944       .  S
Ni825       O829   1.905       .  S
Ni825       O827   1.868       .  S
O826       Ni831   1.983       .  S
C828        O829   1.263       .  A
C828        C850   1.528       .  S
C833        C834   1.412       .  A
C833        C838   1.435       .  A
C834        C835   1.430       .  A
C834        C839   1.449       .  S
C835        C836   1.433       .  A
C835        C842   1.451       .  S
C836        C837   1.413       .  A
C837        C838   1.426       .  A
C837        C840   1.452       .  S
C838        C841   1.453       .  S
C839        N846   1.157       .  T
C840        N845   1.157       .  T
C841        N843   1.157       .  T
C842        N844   1.157       .  T
C847        C848   1.422       .  A
C847        C852   1.425       .  A
C848        C849   1.417       .  A
C848        C853   1.454       .  S
C849        C850   1.421   1_455  A
C849        C856   1.449   1_455  S
C850        C851   1.420       .  A
C851        C852   1.434   1_655  A
C851        C854   1.448       .  S
C852        C855   1.449       .  S
C853        N860   1.157       .  T
C854        N859   1.157       .  T
C855        N857   1.157       .  T
C856        N858   1.155       .  T
C861        C862   1.414       .  A
C861        C866   1.415       .  A
C862        C863   1.425       .  A
C862        C867   1.451       .  S
C863        C864   1.426       .  A
C863        C870   1.450       .  S
C864        C865   1.421       .  A
C865        C866   1.425       .  A
C865        C868   1.451       .  S
C866        C869   1.445       .  S
C867        N874   1.157       .  T
C868        N873   1.157       .  T
C869        N871   1.155       .  T
C870        N872   1.157       .  T
C875        C876   1.423       .  A
C875        C880   1.415       .  A
C876        C877   1.430       .  A
C876        C881   1.449   1_545  S
C877        C878   1.417       .  A
C877        C884   1.450       .  S
C878        C879   1.423       .  A
C879        C880   1.428       .  A
C879        C882   1.450       .  S
C880        C883   1.448       .  S
C881        N888   1.157       .  T
C882        N887   1.157       .  T
C883        N885   1.157       .  T
C884        N886   1.157       .  T
C889        C890   1.405       .  A
C889        C894   1.408       .  A
C890        C891   1.405       .  A
C890        C895   1.450       .  S
C891        C892   1.415       .  A
C891        C898   1.451       .  S
C892        C893   1.420       .  A
C893        C894   1.395       .  A
C893        C896   1.454       .  S
C894        C897   1.456       .  S
C895        N902   1.157       .  T
C896        N901   1.157       .  T
C897        N899   1.157       .  T
C898        N900   1.157       .  T
C903        C904   1.417       .  A
C903        C908   1.415       .  A
C904        C905   1.400       .  A
C904        C909   1.450       .  S
C905        C906   1.402       .  A
C905        C912   1.450       .  S
C906        C907   1.406       .  A
C907        C908   1.397       .  A
C907        C910   1.452       .  S
C908        C911   1.450       .  S
C909        N916   1.157       .  T
C910        N915   1.157       .  T
C911        N913   1.157       .  T
C912        N914   1.157       .  T
C917        C918   1.410       .  A
C917        C922   1.412       .  A
C918        C919   1.398       .  A
C918        C923   1.450       .  S
C919        C920   1.411       .  A
C919        C926   1.455       .  S
C920        C921   1.410       .  A
C921        C922   1.404       .  A
C921        C924   1.449       .  S
C922        C925   1.452       .  S
C923        N930   1.157       .  T
C924        N929   1.156       .  T
C925        N927   1.157       .  T
C926        N928   1.158   1_655  T
C931        C932   1.412       .  A
C931        C936   1.405       .  A
C932        C933   1.399       .  A
C932        C937   1.456       .  S
C933        C934   1.415       .  A
C933        C940   1.450       .  S
C934        C935   1.426       .  A
C935        C936   1.410       .  A
C935        C938   1.452       .  S
C936        C939   1.452       .  S
C937        N944   1.157       .  T
C938        N943   1.158       .  T
C939        N941   1.157       .  T
C940        N942   1.157       .  T
C945        C946   1.410       .  A
C945        C950   1.440       .  A
C946        C947   1.423       .  A
C946        C951   1.451       .  S
C947        C948   1.438       .  A
C947        C954   1.453       .  S
C948        C949   1.408       .  A
C949        C950   1.427       .  A
C949        C952   1.450       .  S
C950        C953   1.451       .  S
C951        N958   1.158       .  T
C952        N957   1.157       .  T
C953        N955   1.158       .  T
C954        N956   1.158       .  T
C959        C960   1.414       .  A
C959        C964   1.416       .  A
C960        C961   1.424       .  A
C960        C965   1.448       .  S
C961        C962   1.419       .  A
C961        C968   1.449       .  S
C962        C963   1.419       .  A
C963        C964   1.426       .  A
C963        C966   1.450       .  S
C964        C967   1.448       .  S
C965        N972   1.157       .  T
C966        N971   1.157       .  T
C967        N969   1.158       .  T
C968        N970   1.157       .  T
C973        C974   1.414       .  A
C973        C978   1.409       .  A
C974        C975   1.405       .  A
C974        C979   1.443       .  S
C975        C976   1.408       .  A
C975        C982   1.451       .  S
C976        C977   1.413       .  A
C977        C978   1.399       .  A
C977        C980   1.451       .  S
C978        C981   1.453       .  S
C979        N986   1.155       .  T
C980        N985   1.157       .  T
C981        N983   1.157       .  T
C982        N984   1.158       .  T
C987        C988   1.414       .  A
C987        C992   1.426       .  A
C988        C989   1.395       .  A
C988        C993   1.455       .  S
C989        C990   1.411       .  A
C989        C996   1.451       .  S
C990        C991   1.405       .  A
C991        C992   1.404       .  A
C991        C994   1.454       .  S
C992        C995   1.453       .  S
C993       N1000   1.158       .  T
C994        N999   1.158       .  T
C995        N997   1.158       .  T
C996        N998   1.157       .  T
C1001      C1002   1.413   1_655  A
C1001      C1006   1.412       .  A
C1002      C1003   1.427       .  A
C1002      C1007   1.450       .  S
C1003      C1004   1.427       .  A
C1003      C1010   1.450       .  S
C1004      C1005   1.427   1_455  A
C1005      C1006   1.425       .  A
C1005      C1008   1.447       .  S
C1006      C1009   1.451       .  S
C1007      N1014   1.157       .  T
C1008      N1013   1.157       .  T
C1009      N1011   1.157       .  T
C1010      N1012   1.157       .  T
C1015      C1016   1.405       .  A
C1015      C1020   1.410       .  A
C1016      C1017   1.389       .  A
C1016      C1021   1.453       .  S
C1017      C1018   1.420       .  A
C1017      C1024   1.453       .  S
C1018      C1019   1.426       .  A
C1019      C1020   1.411       .  A
C1019      C1022   1.452       .  S
C1020      C1023   1.453       .  S
C1021      N1028   1.155       .  T
C1022      N1027   1.158       .  T
C1023      N1025   1.158       .  T
C1024      N1026   1.156       .  T
C1029      C1030   1.424       .  A
C1029      C1034   1.420       .  A
C1030      C1031   1.404       .  A
C1030      C1035   1.453       .  S
C1031      C1032   1.403       .  A
C1031      C1038   1.452       .  S
C1032      C1033   1.407       .  A
C1033      C1034   1.398       .  A
C1033      C1036   1.458   1_655  S
C1034      C1037   1.447       .  S
C1035      N1042   1.158       .  T
C1036      N1041   1.157       .  T
C1037      N1039   1.157       .  T
C1038      N1040   1.157       .  T
C1043      C1044   1.416       .  A
C1043      C1048   1.431       .  A
C1044      C1045   1.426       .  A
C1044      C1049   1.449       .  S
C1045      C1046   1.424       .  A
C1045      C1052   1.452       .  S
C1046      C1047   1.409       .  A
C1047      C1048   1.426       .  A
C1047      C1050   1.450       .  S
C1048      C1051   1.451       .  S
C1049      N1056   1.157       .  T
C1050      N1055   1.157       .  T
C1051      N1053   1.157       .  T
C1052      N1054   1.157       .  T
C1057      C1058   1.416       .  A
C1057      C1062   1.436       .  A
C1058      C1059   1.431       .  A
C1058      C1063   1.445       .  S
C1059      C1060   1.427       .  A
C1059      C1066   1.451       .  S
C1060      C1061   1.412       .  A
C1061      C1062   1.435       .  A
C1061      C1064   1.449       .  S
C1062      C1065   1.450       .  S
C1063      N1070   1.156       .  T
C1064      N1069   1.157       .  T
C1065      N1067   1.157       .  T
C1066      N1068   1.157       .  T
C1071      C1072   1.408       .  A
C1071      C1076   1.414       .  A
C1072      C1073   1.419       .  A
C1072      C1077   1.445       .  S
C1073      C1074   1.424       .  A
C1073      C1080   1.446       .  S
C1074      C1075   1.429       .  A
C1075      C1076   1.432       .  A
C1075      C1078   1.448   1_556  S
C1076      C1079   1.449   1_556  S
C1077      N1084   1.154       .  T
C1078      N1083   1.157       .  T
C1079      N1081   1.157       .  T
C1080      N1082   1.156       .  T
C1085      C1086   1.429   1_655  A
C1085      C1090   1.432   1_655  A
C1086      C1087   1.423       .  A
C1086      C1091   1.449   1_455  S
C1087      C1088   1.409       .  A
C1087      C1094   1.449       .  S
C1088      C1089   1.413       .  A
C1089      C1090   1.430       .  A
C1089      C1092   1.450       .  S
C1090      C1093   1.450       .  S
C1091      N1098   1.157       .  T
C1092      N1097   1.157       .  T
C1093      N1095   1.158       .  T
C1094      N1096   1.156       .  T
C1099      C1100   1.407       .  A
C1099      C1104   1.430       .  A
C1100      C1101   1.425       .  A
C1100      C1105   1.451       .  S
C1101      C1102   1.434       .  A
C1101      C1108   1.450   1_545  S
C1102      C1103   1.410       .  A
C1103      C1104   1.427       .  A
C1103      C1106   1.449       .  S
C1104      C1107   1.451       .  S
C1105      N1112   1.157       .  T
C1106      N1111   1.157       .  T
C1107      N1109   1.157       .  T
C1108      N1110   1.157       .  T
C1113      C1114   1.419       .  A
C1113      C1118   1.419       .  A
C1114      C1115   1.399       .  A
C1114      C1119   1.449       .  S
C1115      C1116   1.403       .  A
C1115      C1122   1.454       .  S
C1116      C1117   1.401       .  A
C1117      C1118   1.401       .  A
C1117      C1120   1.450       .  S
C1118      C1121   1.452       .  S
C1119      N1126   1.158       .  T
C1120      N1125   1.156       .  T
C1121      N1123   1.157       .  T
C1122      N1124   1.158       .  T
C1127      C1128   1.405       .  A
C1127      C1132   1.413       .  A
C1128      C1129   1.400       .  A
C1128      C1133   1.451       .  S
C1129      C1130   1.411       .  A
C1129      C1136   1.453       .  S
C1130      C1131   1.407       .  A
C1131      C1132   1.400       .  A
C1131      C1134   1.454       .  S
C1132      C1135   1.452       .  S
C1133      N1140   1.157       .  T
C1134      N1139   1.158       .  T
C1135      N1137   1.157       .  T
C1136      N1138   1.157       .  T
C1141      C1142   1.406       .  A
C1141      C1146   1.404       .  A
C1142      C1143   1.402       .  A
C1142      C1147   1.450       .  S
C1143      C1144   1.413       .  A
C1143      C1150   1.451       .  S
C1144      C1145   1.418       .  A
C1145      C1146   1.401       .  A
C1145      C1148   1.449       .  S
C1146      C1149   1.453       .  S
C1147      N1154   1.157       .  T
C1148      N1153   1.156       .  T
C1149      N1151   1.157       .  T
C1150      N1152   1.157       .  T
C1155      C1156   1.414       .  A
C1155      C1160   1.405       .  A
C1156      C1157   1.399       .  A
C1156      C1161   1.451       .  S
C1157      C1158   1.404       .  A
C1157      C1164   1.453       .  S
C1158      C1159   1.413       .  A
C1159      C1160   1.401       .  A
C1159      C1162   1.451       .  S
C1160      C1163   1.452       .  S
C1161      N1168   1.157       .  T
C1162      N1167   1.157       .  T
C1163      N1165   1.157       .  T
C1164      N1166   1.157       .  T
C1169      C1170   1.414       .  A
C1169      C1174   1.422       .  A
C1170      C1171   1.428       .  A
C1170      C1175   1.449       .  S
C1171      C1172   1.424       .  A
C1171      C1178   1.450       .  S
C1172      C1173   1.414       .  A
C1173      C1174   1.425       .  A
C1173      C1176   1.450       .  S
C1174      C1177   1.450       .  S
C1175      N1182   1.157       .  T
C1176      N1181   1.157       .  T
C1177      N1179   1.157       .  T
C1178      N1180   1.157       .  T
C1183      C1184   1.418       .  A
C1183      C1188   1.410       .  A
C1184      C1185   1.429       .  A
C1184      C1189   1.449       .  S
C1185      C1186   1.421       .  A
C1185      C1192   1.448   1_455  S
C1186      C1187   1.428       .  A
C1187      C1188   1.421       .  A
C1187      C1190   1.450       .  S
C1188      C1191   1.452       .  S
C1189      N1196   1.157   1_556  T
C1190      N1195   1.157       .  T
C1191      N1193   1.157       .  T
C1192      N1194   1.157   1_556  T
C1197      C1198   1.412       .  A
C1197      C1202   1.415       .  A
C1198      C1199   1.402       .  A
C1198      C1203   1.449       .  S
C1199      C1200   1.408       .  A
C1199      C1206   1.448       .  S
C1200      C1201   1.413       .  A
C1201      C1202   1.402       .  A
C1201      C1204   1.453       .  S
C1202      C1205   1.452       .  S
C1203      N1210   1.156       .  T
C1204      N1209   1.157       .  T
C1205      N1207   1.157       .  T
C1206      N1208   1.156       .  T
C1211      C1212   1.397       .  A
C1211      C1216   1.411       .  A
C1212      C1213   1.400       .  A
C1212      C1217   1.456       .  S
C1213      C1214   1.422       .  A
C1213      C1220   1.443       .  S
C1214      C1215   1.410       .  A
C1215      C1216   1.400       .  A
C1215      C1218   1.452       .  S
C1216      C1219   1.452       .  S
C1217      N1224   1.157       .  T
C1218      N1223   1.157       .  T
C1219      N1221   1.157       .  T
C1220      N1222   1.155       .  T
C1225      C1226   1.415       .  A
C1225      C1230   1.412       .  A
C1226      C1227   1.399       .  A
C1226      C1231   1.453       .  S
C1227      C1228   1.412       .  A
C1227      C1234   1.454       .  S
C1228      C1229   1.411       .  A
C1229      C1230   1.398       .  A
C1229      C1232   1.453       .  S
C1230      C1233   1.453       .  S
C1231      N1238   1.158       .  T
C1232      N1237   1.157       .  T
C1233      N1235   1.157   1_565  T
C1234      N1236   1.157       .  T
C1239      C1240   1.416       .  A
C1239      C1244   1.412       .  A
C1240      C1241   1.427       .  A
C1240      C1245   1.449       .  S
C1241      C1242   1.421       .  A
C1241      C1248   1.449       .  S
C1242      C1243   1.426       .  A
C1243      C1244   1.420       .  A
C1243      C1246   1.449       .  S
C1244      C1247   1.452       .  S
C1245      N1252   1.157       .  T
C1246      N1251   1.157       .  T
C1247      N1249   1.157       .  T
C1248      N1250   1.157       .  T
C1253      C1254   1.418       .  A
C1253      C1258   1.429       .  A
C1254      C1255   1.403       .  A
C1254      C1259   1.452       .  S
C1255      C1256   1.407       .  A
C1255      C1262   1.452       .  S
C1256      C1257   1.398       .  A
C1257      C1258   1.397       .  A
C1257      C1260   1.455       .  S
C1258      C1261   1.453       .  S
C1259      N1266   1.157       .  T
C1260      N1265   1.158       .  T
C1261      N1263   1.157       .  T
C1262      N1264   1.157       .  T
C1267      C1268   1.411       .  A
C1267      C1272   1.429       .  A
C1268      C1269   1.429       .  A
C1268      C1273   1.449       .  S
C1269      C1270   1.428       .  A
C1269      C1276   1.450       .  S
C1270      C1271   1.412       .  A
C1271      C1272   1.428       .  A
C1271      C1274   1.450       .  S
C1272      C1275   1.449       .  S
C1273      N1280   1.157       .  T
C1274      N1279   1.157   1_565  T
C1275      N1277   1.157       .  T
C1276      N1278   1.157       .  T
C1281      C1282   1.426       .  A
C1281      C1286   1.410   1_455  A
C1282      C1283   1.409   1_556  A
C1282      C1287   1.452       .  S
C1283      C1284   1.412       .  A
C1283      C1290   1.454       .  S
C1284      C1285   1.428   1_554  A
C1285      C1286   1.412   1_455  A
C1285      C1288   1.450       .  S
C1286      C1289   1.453       .  S
C1287      N1294   1.156       .  T
C1288      N1293   1.157       .  T
C1289      N1291   1.158       .  T
C1290      N1292   1.158       .  T
C1295      C1296   1.411       .  A
C1295      C1300   1.422   1_554  A
C1296      C1297   1.416       .  A
C1296      C1301   1.450       .  S
C1297      C1298   1.427   1_554  A
C1297      C1304   1.453       .  S
C1298      C1299   1.416       .  A
C1299      C1300   1.417       .  A
C1299      C1302   1.451       .  S
C1300      C1303   1.452       .  S
C1301      N1308   1.157       .  T
C1302      N1307   1.158       .  T
C1303      N1305   1.157       .  T
C1304      N1306   1.158       .  T
C1309      C1310   1.411       .  A
C1309      C1314   1.424       .  A
C1310      C1311   1.414       .  A
C1310      C1315   1.450       .  S
C1311      C1312   1.423       .  A
C1311      C1318   1.453       .  S
C1312      C1313   1.409       .  A
C1313      C1314   1.409       .  A
C1313      C1316   1.451       .  S
C1314      C1317   1.454       .  S
C1315      N1322   1.158       .  T
C1316      N1321   1.158       .  T
C1317      N1319   1.157       .  T
C1318      N1320   1.157       .  T
C1323      C1324   1.419       .  A
C1323      C1328   1.413       .  A
C1324      C1325   1.411       .  A
C1324      C1329   1.452       .  S
C1325      C1326   1.409       .  A
C1325      C1332   1.452       .  S
C1326      C1327   1.413       .  A
C1327      C1328   1.418       .  A
C1327      C1330   1.450       .  S
C1328      C1331   1.448       .  S
C1329      N1336   1.157       .  T
C1330      N1335   1.157       .  T
C1331      N1333   1.157       .  T
C1332      N1334   1.157       .  T
C1337      C1338   1.433       .  A
C1337      C1342   1.406       .  A
C1338      C1339   1.429       .  A
C1338      C1343   1.451       .  S
C1339      C1340   1.409       .  A
C1339      C1346   1.449       .  S
C1340      C1341   1.433       .  A
C1341      C1342   1.425       .  A
C1341      C1344   1.449       .  S
C1342      C1345   1.450       .  S
C1343      N1350   1.157       .  T
C1344      N1349   1.157       .  T
C1345      N1347   1.157       .  T
C1346      N1348   1.157       .  T
C1351      C1352   1.410   1_545  A
C1351      C1356   1.427   1_554  A
C1352      C1353   1.418       .  A
C1352      C1357   1.450       .  S
C1353      C1354   1.428   1_554  A
C1353      C1360   1.452       .  S
C1354      C1355   1.409   1_565  A
C1355      C1356   1.410       .  A
C1355      C1358   1.451       .  S
C1356      C1359   1.455       .  S
C1357      N1364   1.157       .  T
C1358      N1363   1.158       .  T
C1359      N1361   1.158       .  T
C1360      N1362   1.157       .  T
C1365      C1366   1.414       .  A
C1365      C1370   1.412       .  A
C1366      C1367   1.405   1_554  A
C1366      C1371   1.453       .  S
C1367      C1368   1.409       .  A
C1367      C1374   1.453       .  S
C1368      C1369   1.411       .  A
C1369      C1370   1.415   1_556  A
C1369      C1372   1.449   1_545  S
C1370      C1373   1.449   1_545  S
C1371      N1378   1.157       .  T
C1372      N1377   1.157       .  T
C1373      N1375   1.157       .  T
C1374      N1376   1.157       .  T
C1379      C1380   1.421       .  A
C1379      C1384   1.420       .  A
C1380      C1381   1.402       .  A
C1380      C1385   1.447       .  S
C1381      C1382   1.403       .  A
C1381      C1388   1.455       .  S
C1382      C1383   1.408       .  A
C1383      C1384   1.404       .  A
C1383      C1386   1.454       .  S
C1384      C1387   1.452       .  S
C1385      N1392   1.156       .  T
C1386      N1391   1.158       .  T
C1387      N1389   1.158       .  T
C1388      N1390   1.157       .  T
C1393      C1394   1.432       .  A
C1393      C1398   1.415       .  A
C1394      C1395   1.417       .  A
C1394      C1399   1.454       .  S
C1395      C1396   1.415       .  A
C1395      C1402   1.453       .  S
C1396      C1397   1.432       .  A
C1397      C1398   1.417       .  A
C1397      C1400   1.454       .  S
C1398      C1401   1.453       .  S
C1399      N1406   1.158       .  T
C1400      N1405   1.158       .  T
C1401      N1403   1.158       .  T
C1402      N1404   1.158       .  T
C1407      C1408   1.410       .  A
C1407      C1412   1.408       .  A
C1408      C1409   1.414   1_565  A
C1408      C1413   1.450       .  S
C1409      C1410   1.415       .  A
C1409      C1416   1.450       .  S
C1410      C1411   1.418       .  A
C1411      C1412   1.407   1_545  A
C1411      C1414   1.453       .  S
C1412      C1415   1.453       .  S
C1413      N1420   1.157       .  T
C1414      N1419   1.157       .  T
C1415      N1417   1.157       .  T
C1416      N1418   1.157       .  T
C1421      C1422   1.406       .  A
C1421      C1426   1.418       .  A
C1422      C1423   1.401       .  A
C1422      C1427   1.451       .  S
C1423      C1424   1.409       .  A
C1423      C1430   1.448       .  S
C1424      C1425   1.396       .  A
C1425      C1426   1.394       .  A
C1425      C1428   1.454       .  S
C1426      C1429   1.446       .  S
C1427      N1434   1.157       .  T
C1428      N1433   1.157       .  T
C1429      N1431   1.157       .  T
C1430      N1432   1.155       .  T
C1435      C1436   1.428       .  A
C1435      C1440   1.415       .  A
C1436      C1437   1.428       .  A
C1436      C1441   1.450       .  S
C1437      C1438   1.410       .  A
C1437      C1444   1.448       .  S
C1438      C1439   1.425       .  A
C1439      C1440   1.425       .  A
C1439      C1442   1.452   1_565  S
C1440      C1443   1.450       .  S
C1441      N1448   1.157       .  T
C1442      N1447   1.157       .  T
C1443      N1445   1.157       .  T
C1444      N1446   1.157       .  T
C1449      C1450   1.426       .  A
C1449      C1454   1.414       .  A
C1450      C1451   1.416       .  A
C1450      C1455   1.453       .  S
C1451      C1452   1.416       .  A
C1451      C1458   1.452       .  S
C1452      C1453   1.428       .  A
C1453      C1454   1.409       .  A
C1453      C1456   1.455       .  S
C1454      C1457   1.453       .  S
C1455      N1462   1.158       .  T
C1456      N1461   1.157       .  T
C1457      N1459   1.158       .  T
C1458      N1460   1.158       .  T
C1463      C1464   1.431       .  A
C1463      C1468   1.424   1_565  A
C1464      C1465   1.416   1_565  A
C1464      C1469   1.452       .  S
C1465      C1466   1.407       .  A
C1465      C1472   1.452       .  S
C1466      C1467   1.415       .  A
C1467      C1468   1.418       .  A
C1467      C1470   1.453       .  S
C1468      C1471   1.451       .  S
C1469      N1476   1.158       .  T
C1470      N1475   1.158       .  T
C1471      N1473   1.158       .  T
C1472      N1474   1.157       .  T
C1477      C1478   1.414       .  A
C1477      C1482   1.410       .  A
C1478      C1479   1.429       .  A
C1478      C1483   1.449       .  S
C1479      C1480   1.426       .  A
C1479      C1486   1.449       .  S
C1480      C1481   1.429       .  A
C1481      C1482   1.422       .  A
C1481      C1484   1.448       .  S
C1482      C1485   1.451       .  S
C1483      N1490   1.157       .  T
C1484      N1489   1.156       .  T
C1485      N1487   1.157       .  T
C1486      N1488   1.157       .  T
C1491      C1492   1.410       .  A
C1491      C1496   1.415       .  A
C1492      C1493   1.401       .  A
C1492      C1497   1.454       .  S
C1493      C1494   1.412       .  A
C1493      C1500   1.452       .  S
C1494      C1495   1.405       .  A
C1495      C1496   1.401       .  A
C1495      C1498   1.452       .  S
C1496      C1499   1.453       .  S
C1497      N1504   1.158       .  T
C1498      N1503   1.157       .  T
C1499      N1501   1.157       .  T
C1500      N1502   1.157       .  T
C1505      C1506   1.411   1_545  A
C1505      C1510   1.427   1_556  A
C1506      C1507   1.409       .  A
C1506      C1511   1.451       .  S
C1507      C1508   1.423   1_456  A
C1507      C1514   1.454   1_455  S
C1508      C1509   1.408   1_665  A
C1509      C1510   1.413       .  A
C1509      C1512   1.450       .  S
C1510      C1513   1.453       .  S
C1511      N1518   1.158       .  T
C1512      N1517   1.158   1_455  T
C1513      N1515   1.157       .  T
C1514      N1516   1.157       .  T
C1519      C1520   1.405       .  A
C1519      C1524   1.415   1_556  A
C1520      C1521   1.409       .  A
C1520      C1525   1.454       .  S
C1521      C1522   1.430   1_556  A
C1521      C1528   1.454       .  S
C1522      C1523   1.418       .  A
C1523      C1524   1.414       .  A
C1523      C1526   1.452   1_565  S
C1524      C1527   1.452       .  S
C1525      N1532   1.157       .  T
C1526      N1531   1.158       .  T
C1527      N1529   1.157   1_565  T
C1528      N1530   1.158       .  T
C1533      C1534   1.411       .  A
C1533      C1538   1.403       .  A
C1534      C1535   1.404       .  A
C1534      C1539   1.450       .  S
C1535      C1536   1.407       .  A
C1535      C1542   1.451       .  S
C1536      C1537   1.411       .  A
C1537      C1538   1.395       .  A
C1537      C1540   1.452       .  S
C1538      C1541   1.452       .  S
C1539      N1546   1.157       .  T
C1540      N1545   1.157       .  T
C1541      N1543   1.157       .  T
C1542      N1544   1.157   1_565  T
C1547      C1548   1.416       .  A
C1547      C1552   1.432       .  A
C1548      C1549   1.428       .  A
C1548      C1553   1.448       .  S
C1549      C1550   1.426       .  A
C1549      C1556   1.452   1_545  S
C1550      C1551   1.409       .  A
C1551      C1552   1.428       .  A
C1551      C1554   1.449       .  S
C1552      C1555   1.451       .  S
C1553      N1560   1.157       .  T
C1554      N1559   1.157       .  T
C1555      N1557   1.157       .  T
C1556      N1558   1.157       .  T
C1561      C1562   1.417   1_455  A
C1561      C1566   1.422       .  A
C1562      C1563   1.422   1_655  A
C1562      C1567   1.450       .  S
C1563      C1564   1.422       .  A
C1563      C1570   1.450   1_455  S
C1564      C1565   1.416       .  A
C1565      C1566   1.425       .  A
C1565      C1568   1.450       .  S
C1566      C1569   1.451       .  S
C1567      N1574   1.158       .  T
C1568      N1573   1.157       .  T
C1569      N1571   1.157       .  T
C1570      N1572   1.158       .  T
C1575      C1576   1.422       .  A
C1575      C1580   1.406       .  A
C1576      C1577   1.411       .  A
C1576      C1581   1.451       .  S
C1577      C1578   1.412   1_554  A
C1577      C1584   1.452   1_554  S
C1578      C1579   1.433   1_556  A
C1579      C1580   1.415       .  A
C1579      C1582   1.450   1_554  S
C1580      C1583   1.452       .  S
C1581      N1588   1.156       .  T
C1582      N1587   1.157       .  T
C1583      N1585   1.157       .  T
C1584      N1586   1.158       .  T
C1589      C1590   1.407       .  A
C1589      C1594   1.413   1_556  A
C1590      C1591   1.411       .  A
C1590      C1595   1.455       .  S
C1591      C1592   1.431   1_556  A
C1591      C1598   1.453       .  S
C1592      C1593   1.426       .  A
C1593      C1594   1.418       .  A
C1593      C1596   1.452       .  S
C1594      C1597   1.453       .  S
C1595      N1602   1.157       .  T
C1596      N1601   1.158       .  T
C1597      N1599   1.158       .  T
C1598      N1600   1.158       .  T
C1603      C1604   1.426       .  A
C1603      C1608   1.421       .  A
C1604      C1605   1.418       .  A
C1604      C1609   1.450       .  S
C1605      C1606   1.411       .  A
C1605      C1612   1.452       .  S
C1606      C1607   1.417       .  A
C1607      C1608   1.426       .  A
C1607      C1610   1.449       .  S
C1608      C1611   1.450       .  S
C1609      N1616   1.157       .  T
C1610      N1615   1.157   1_554  T
C1611      N1613   1.157       .  T
C1612      N1614   1.157       .  T
C1617      C1618   1.423       .  A
C1617      C1622   1.427       .  A
C1618      C1619   1.404       .  A
C1618      C1623   1.452       .  S
C1619      C1620   1.399       .  A
C1619      C1626   1.445       .  S
C1620      C1621   1.401       .  A
C1621      C1622   1.397       .  A
C1621      C1624   1.456       .  S
C1622      C1625   1.453       .  S
C1623      N1630   1.158       .  T
C1624      N1629   1.158       .  T
C1625      N1627   1.157       .  T
C1626      N1628   1.156       .  T
C1631      C1632   1.409       .  A
C1631      C1636   1.415       .  A
C1632      C1633   1.405       .  A
C1632      C1637   1.450       .  S
C1633      C1634   1.412       .  A
C1633      C1640   1.446       .  S
C1634      C1635   1.407       .  A
C1635      C1636   1.402       .  A
C1635      C1638   1.452       .  S
C1636      C1639   1.450       .  S
C1637      N1644   1.157       .  T
C1638      N1643   1.157       .  T
C1639      N1641   1.157       .  T
C1640      N1642   1.156       .  T
C1645      C1646   1.411       .  A
C1645      C1650   1.426       .  A
C1646      C1647   1.414       .  A
C1646      C1651   1.452       .  S
C1647      C1648   1.422       .  A
C1647      C1654   1.451       .  S
C1648      C1649   1.407       .  A
C1649      C1650   1.412       .  A
C1649      C1652   1.453       .  S
C1650      C1653   1.450       .  S
C1651      N1658   1.157       .  T
C1652      N1657   1.157       .  T
C1653      N1655   1.156       .  T
C1654      N1656   1.157       .  T
C1659      C1660   1.421       .  A
C1659      C1664   1.426       .  A
C1660      C1661   1.417       .  A
C1660      C1665   1.450       .  S
C1661      C1662   1.410       .  A
C1661      C1668   1.451       .  S
C1662      C1663   1.408       .  A
C1663      C1664   1.411       .  A
C1663      C1666   1.454       .  S
C1664      C1667   1.453       .  S
C1665      N1672   1.157       .  T
C1666      N1671   1.157       .  T
C1667      N1669   1.158       .  T
C1668      N1670   1.157       .  T
C1673      C1674   1.422       .  A
C1673      C1678   1.422   1_655  A
C1674      C1675   1.424   1_655  A
C1674      C1679   1.446       .  S
C1675      C1676   1.414       .  A
C1675      C1682   1.451       .  S
C1676      C1677   1.418       .  A
C1677      C1678   1.426       .  A
C1677      C1680   1.450       .  S
C1678      C1681   1.450       .  S
C1679      N1686   1.156       .  T
C1680      N1685   1.157       .  T
C1681      N1683   1.157       .  T
C1682      N1684   1.157       .  T
C1687      C1688   1.412       .  A
C1687      C1692   1.404       .  A
C1688      C1689   1.408       .  A
C1688      C1693   1.449       .  S
C1689      C1690   1.407       .  A
C1689      C1696   1.450       .  S
C1690      C1691   1.417       .  A
C1691      C1692   1.401       .  A
C1691      C1694   1.449   1_655  S
C1692      C1695   1.455       .  S
C1693      N1700   1.157       .  T
C1694      N1699   1.157       .  T
C1695      N1697   1.157       .  T
C1696      N1698   1.157       .  T
C1701      C1702   1.401       .  A
C1701      C1706   1.407       .  A
C1702      C1703   1.404       .  A
C1702      C1707   1.451       .  S
C1703      C1704   1.423       .  A
C1703      C1710   1.453       .  S
C1704      C1705   1.416       .  A
C1705      C1706   1.400       .  A
C1705      C1708   1.446       .  S
C1706      C1709   1.455       .  S
C1707      N1714   1.157       .  T
C1708      N1713   1.155       .  T
C1709      N1711   1.157       .  T
C1710      N1712   1.157       .  T
C1715      C1716   1.419       .  A
C1715      C1720   1.414       .  A
C1716      C1717   1.424       .  A
C1716      C1721   1.450       .  S
C1717      C1718   1.415       .  A
C1717      C1724   1.450       .  S
C1718      C1719   1.420       .  A
C1719      C1720   1.423       .  A
C1719      C1722   1.448       .  S
C1720      C1723   1.451       .  S
C1721      N1728   1.157       .  T
C1722      N1727   1.157       .  T
C1723      N1725   1.157       .  T
C1724      N1726   1.157       .  T
C1729      C1730   1.409       .  A
C1729      C1734   1.432       .  A
C1730      C1731   1.414       .  A
C1730      C1735   1.450       .  S
C1731      C1732   1.427       .  A
C1731      C1738   1.452       .  S
C1732      C1733   1.408       .  A
C1733      C1734   1.416       .  A
C1733      C1736   1.452       .  S
C1734      C1737   1.453       .  S
C1735      N1742   1.157       .  T
C1736      N1741   1.157       .  T
C1737      N1739   1.157       .  T
C1738      N1740   1.157       .  T
C1743      C1744   1.414       .  A
C1743      C1748   1.419       .  A
C1744      C1745   1.413       .  A
C1744      C1749   1.451       .  S
C1745      C1746   1.420       .  A
C1745      C1752   1.452       .  S
C1746      C1747   1.417       .  A
C1747      C1748   1.416       .  A
C1747      C1750   1.450       .  S
C1748      C1751   1.453       .  S
C1749      N1756   1.157       .  T
C1750      N1755   1.157       .  T
C1751      N1753   1.158       .  T
C1752      N1754   1.157       .  T
C1757      C1758   1.405       .  A
C1757      C1762   1.426       .  A
C1758      C1759   1.411       .  A
C1758      C1763   1.454       .  S
C1759      C1760   1.426   1_455  A
C1759      C1766   1.445       .  S
C1760      C1761   1.408       .  A
C1761      C1762   1.413   1_655  A
C1761      C1764   1.452       .  S
C1762      C1765   1.449   1_455  S
C1763      N1770   1.157       .  T
C1764      N1769   1.157       .  T
C1765      N1767   1.155       .  T
C1766      N1768   1.154       .  T
C1771      C1772   1.416       .  A
C1771      C1776   1.408       .  A
C1772      C1773   1.417       .  A
C1772      C1777   1.451       .  S
C1773      C1774   1.420       .  A
C1773      C1780   1.452       .  S
C1774      C1775   1.430       .  A
C1775      C1776   1.413       .  A
C1775      C1778   1.451       .  S
C1776      C1779   1.454       .  S
C1777      N1784   1.157       .  T
C1778      N1783   1.157       .  T
C1779      N1781   1.157       .  T
C1780      N1782   1.158       .  T
C1785      C1786   1.435       .  A
C1785      C1790   1.414       .  A
C1786      C1787   1.430       .  A
C1786      C1791   1.451       .  S
C1787      C1788   1.412       .  A
C1787      C1794   1.450       .  S
C1788      C1789   1.428       .  A
C1789      C1790   1.429       .  A
C1789      C1792   1.450       .  S
C1790      C1793   1.448       .  S
C1791      N1798   1.157       .  T
C1792      N1797   1.157       .  T
C1793      N1795   1.156       .  T
C1794      N1796   1.157       .  T
C1799      C1800   1.407       .  A
C1799      C1804   1.425       .  A
C1800      C1801   1.415       .  A
C1800      C1805   1.452       .  S
C1801      C1802   1.427       .  A
C1801      C1808   1.447       .  S
C1802      C1803   1.404       .  A
C1803      C1804   1.410       .  A
C1803      C1806   1.453       .  S
C1804      C1807   1.444       .  S
C1805      N1812   1.157       .  T
C1806      N1811   1.157       .  T
C1807      N1809   1.154       .  T
C1808      N1810   1.155       .  T
C1813      C1814   1.415       .  A
C1813      C1818   1.414       .  A
C1814      C1815   1.417   1_545  A
C1814      C1819   1.447       .  S
C1815      C1816   1.411       .  A
C1815      C1822   1.450       .  S
C1816      C1817   1.412       .  A
C1817      C1818   1.407   1_565  A
C1817      C1820   1.454       .  S
C1818      C1821   1.453       .  S
C1819      N1826   1.157       .  T
C1820      N1825   1.157       .  T
C1821      N1823   1.157       .  T
C1822      N1824   1.157       .  T
C1827      C1828   1.406       .  A
C1827      C1832   1.410       .  A
C1828      C1829   1.401       .  A
C1828      C1833   1.452       .  S
C1829      C1830   1.410       .  A
C1829      C1836   1.452       .  S
C1830      C1831   1.404       .  A
C1831      C1832   1.393       .  A
C1831      C1834   1.453       .  S
C1832      C1835   1.451       .  S
C1833      N1840   1.157       .  T
C1834      N1839   1.157   1_655  T
C1835      N1837   1.157       .  T
C1836      N1838   1.157       .  T
C1841      C1842   1.424       .  A
C1841      C1846   1.410   1_565  A
C1842      C1843   1.415       .  A
C1842      C1847   1.454       .  S
C1843      C1844   1.414   1_565  A
C1843      C1850   1.450       .  S
C1844      C1845   1.430       .  A
C1845      C1846   1.419       .  A
C1845      C1848   1.453       .  S
C1846      C1849   1.450       .  S
C1847      N1854   1.157       .  T
C1848      N1853   1.158       .  T
C1849      N1851   1.157       .  T
C1850      N1852   1.158       .  T
C1855      C1856   1.424       .  A
C1855      C1860   1.422       .  A
C1856      C1857   1.420       .  A
C1856      C1861   1.452       .  S
C1857      C1858   1.417       .  A
C1857      C1864   1.451       .  S
C1858      C1859   1.418       .  A
C1859      C1860   1.419       .  A
C1859      C1862   1.453       .  S
C1860      C1863   1.450       .  S
C1861      N1868   1.158       .  T
C1862      N1867   1.158       .  T
C1863      N1865   1.157       .  T
C1864      N1866   1.158       .  T
C1869      C1870   1.414       .  A
C1869      C1874   1.415       .  A
C1870      C1871   1.399       .  A
C1870      C1875   1.447       .  S
C1871      C1872   1.407       .  A
C1871      C1878   1.455       .  S
C1872      C1873   1.408       .  A
C1873      C1874   1.403       .  A
C1873      C1876   1.449       .  S
C1874      C1877   1.454       .  S
C1875      N1882   1.157       .  T
C1876      N1881   1.156       .  T
C1877      N1879   1.158       .  T
C1878      N1880   1.158       .  T
C1883      C1884   1.425       .  A
C1883      C1888   1.413       .  A
C1884      C1885   1.429       .  A
C1884      C1889   1.451   1_565  S
C1885      C1886   1.416       .  A
C1885      C1892   1.450       .  S
C1886      C1887   1.424       .  A
C1887      C1888   1.426       .  A
C1887      C1890   1.450       .  S
C1888      C1891   1.449       .  S
C1889      N1896   1.158       .  T
C1890      N1895   1.157       .  T
C1891      N1893   1.157       .  T
C1892      N1894   1.158       .  T
C1897      C1898   1.420       .  A
C1897      C1902   1.407       .  A
C1898      C1899   1.413       .  A
C1898      C1903   1.451       .  S
C1899      C1900   1.408       .  A
C1899      C1906   1.451       .  S
C1900      C1901   1.418       .  A
C1901      C1902   1.412       .  A
C1901      C1904   1.449       .  S
C1902      C1905   1.451       .  S
C1903      N1910   1.157       .  T
C1904      N1909   1.156       .  T
C1905      N1907   1.157       .  T
C1906      N1908   1.157       .  T
C1911      C1912   1.427       .  A
C1911      C1916   1.418       .  A
C1912      C1913   1.411       .  A
C1912      C1917   1.453       .  S
C1913      C1914   1.410       .  A
C1913      C1920   1.452       .  S
C1914      C1915   1.419       .  A
C1915      C1916   1.413       .  A
C1915      C1918   1.453       .  S
C1916      C1919   1.452       .  S
C1917      N1924   1.158       .  T
C1918      N1923   1.157       .  T
C1919      N1921   1.158       .  T
C1920      N1922   1.157       .  T
C1925      C1926   1.418       .  A
C1925      C1930   1.410       .  A
C1926      C1927   1.431       .  A
C1926      C1931   1.450       .  S
C1927      C1928   1.425   1_455  A
C1927      C1934   1.449       .  S
C1928      C1929   1.427       .  A
C1929      C1930   1.419   1_655  A
C1929      C1932   1.448       .  S
C1930      C1933   1.453       .  S
C1931      N1938   1.158       .  T
C1932      N1937   1.157       .  T
C1933      N1935   1.157       .  T
C1934      N1936   1.158       .  T
C1939      C1940   1.413       .  A
C1939      C1944   1.417       .  A
C1940      C1941   1.401       .  A
C1940      C1945   1.452       .  S
C1941      C1942   1.408       .  A
C1941      C1948   1.452       .  S
C1942      C1943   1.406       .  A
C1943      C1944   1.400       .  A
C1943      C1946   1.456       .  S
C1944      C1947   1.446       .  S
C1945      N1952   1.157       .  T
C1946      N1951   1.158       .  T
C1947      N1949   1.155       .  T
C1948      N1950   1.157       .  T
C1953      C1954   1.410       .  A
C1953      C1958   1.425       .  A
C1954      C1955   1.411       .  A
C1954      C1959   1.452       .  S
C1955      C1956   1.428       .  A
C1955      C1962   1.454       .  S
C1956      C1957   1.411       .  A
C1957      C1958   1.417       .  A
C1957      C1960   1.450       .  S
C1958      C1961   1.452       .  S
C1959      N1966   1.158       .  T
C1960      N1965   1.158       .  T
C1961      N1963   1.157       .  T
C1962      N1964   1.157       .  T
C1967      C1968   1.410       .  A
C1967      C1972   1.407       .  A
C1968      C1969   1.415       .  A
C1968      C1973   1.452       .  S
C1969      C1970   1.424       .  A
C1969      C1976   1.452       .  S
C1970      C1971   1.427       .  A
C1971      C1972   1.410       .  A
C1971      C1974   1.453       .  S
C1972      C1975   1.452       .  S
C1973      N1980   1.157       .  T
C1974      N1979   1.158       .  T
C1975      N1977   1.157       .  T
C1976      N1978   1.158       .  T
C1981      C1982   1.423       .  A
C1981      C1986   1.430       .  A
C1982      C1983   1.434       .  A
C1982      C1987   1.448       .  S
C1983      C1984   1.423       .  A
C1983      C1990   1.449       .  S
C1984      C1985   1.419       .  A
C1985      C1986   1.421       .  A
C1985      C1988   1.454       .  S
C1986      C1989   1.453       .  S
C1987      N1994   1.157       .  T
C1988      N1993   1.158       .  T
C1989      N1991   1.157       .  T
C1990      N1992   1.157       .  T
C1995      C1996   1.418       .  A
C1995      C2000   1.413       .  A
C1996      C1997   1.404       .  A
C1996      C2001   1.453       .  S
C1997      C1998   1.406       .  A
C1997      C2004   1.448       .  S
C1998      C1999   1.414       .  A
C1999      C2000   1.403       .  A
C1999      C2002   1.451       .  S
C2000      C2003   1.452       .  S
C2001      N2008   1.157       .  T
C2002      N2007   1.157       .  T
C2003      N2005   1.158       .  T
C2004      N2006   1.156       .  T
C2009      C2010   1.412       .  A
C2009      C2014   1.431       .  A
C2010      C2011   1.430       .  A
C2010      C2015   1.450       .  S
C2011      C2012   1.432       .  A
C2011      C2018   1.448       .  S
C2012      C2013   1.413       .  A
C2013      C2014   1.432       .  A
C2013      C2016   1.449       .  S
C2014      C2017   1.450       .  S
C2015      N2022   1.157       .  T
C2016      N2021   1.157       .  T
C2017      N2019   1.157       .  T
C2018      N2020   1.156       .  T
C2023      C2024   1.429       .  A
C2023      C2028   1.409       .  A
C2024      C2025   1.415       .  A
C2024      C2029   1.449       .  S
C2025      C2026   1.410       .  A
C2025      C2032   1.453       .  S
C2026      C2027   1.426       .  A
C2027      C2028   1.414       .  A
C2027      C2030   1.446       .  S
C2028      C2031   1.454       .  S
C2029      N2036   1.156       .  T
C2030      N2035   1.155       .  T
C2031      N2033   1.158       .  T
C2032      N2034   1.157       .  T
C2037      C2038   1.419       .  A
C2037      C2042   1.412   1_545  A
C2038      C2039   1.415   1_545  A
C2038      C2043   1.453       .  S
C2039      C2040   1.420       .  A
C2039      C2046   1.452   1_565  S
C2040      C2041   1.425       .  A
C2041      C2042   1.414       .  A
C2041      C2044   1.453       .  S
C2042      C2045   1.452       .  S
C2043      N2050   1.157       .  T
C2044      N2049   1.158       .  T
C2045      N2047   1.157       .  T
C2046      N2048   1.158       .  T
C2051      C2052   1.421       .  A
C2051      C2056   1.424       .  A
C2052      C2053   1.416       .  A
C2052      C2057   1.457       .  S
C2053      C2054   1.426       .  A
C2053      C2060   1.453       .  S
C2054      C2055   1.419       .  A
C2055      C2056   1.431       .  A
C2055      C2058   1.449       .  S
C2056      C2059   1.449       .  S
C2057      N2064   1.158       .  T
C2058      N2063   1.157       .  T
C2059      N2061   1.157       .  T
C2060      N2062   1.157       .  T
C2065      C2066   1.425       .  A
C2065      C2070   1.412       .  A
C2066      C2067   1.404       .  A
C2066      C2071   1.445       .  S
C2067      C2068   1.397       .  A
C2067      C2074   1.452       .  S
C2068      C2069   1.408       .  A
C2069      C2070   1.403       .  A
C2069      C2072   1.450       .  S
C2070      C2073   1.451       .  S
C2071      N2078   1.156       .  T
C2072      N2077   1.156       .  T
C2073      N2075   1.157       .  T
C2074      N2076   1.157       .  T
C2079      C2080   1.413       .  A
C2079      C2084   1.414       .  A
C2080      C2081   1.412       .  A
C2080      C2085   1.453       .  S
C2081      C2082   1.424       .  A
C2081      C2088   1.452       .  S
C2082      C2083   1.412       .  A
C2083      C2084   1.396       .  A
C2083      C2086   1.458       .  S
C2084      C2087   1.443       .  S
C2085      N2092   1.157       .  T
C2086      N2091   1.158       .  T
C2087      N2089   1.155       .  T
C2088      N2090   1.158       .  T
C2093      C2094   1.414   1_645  A
C2093      C2098   1.429   1_655  A
C2094      C2095   1.413       .  A
C2094      C2099   1.451   1_455  S
C2095      C2096   1.423       .  A
C2095      C2102   1.454       .  S
C2096      C2097   1.408   1_565  A
C2097      C2098   1.414       .  A
C2097      C2100   1.452       .  S
C2098      C2101   1.453   1_455  S
C2099      N2106   1.158       .  T
C2100      N2105   1.158       .  T
C2101      N2103   1.157       .  T
C2102      N2104   1.158       .  T
C2107      C2108   1.411       .  A
C2107      C2112   1.406       .  A
C2108      C2109   1.414       .  A
C2108      C2113   1.453       .  S
C2109      C2110   1.424       .  A
C2109      C2116   1.452       .  S
C2110      C2111   1.431       .  A
C2111      C2112   1.410       .  A
C2111      C2114   1.453       .  S
C2112      C2115   1.455       .  S
C2113      N2120   1.158       .  T
C2114      N2119   1.158       .  T
C2115      N2117   1.157       .  T
C2116      N2118   1.158   1_565  T
C2121      C2122   1.410       .  A
C2121      C2126   1.402       .  A
C2122      C2123   1.408       .  A
C2122      C2127   1.451       .  S
C2123      C2124   1.414       .  A
C2123      C2130   1.451       .  S
C2124      C2125   1.423       .  A
C2125      C2126   1.395       .  A
C2125      C2128   1.455       .  S
C2126      C2129   1.452       .  S
C2127      N2134   1.157       .  T
C2128      N2133   1.157       .  T
C2129      N2131   1.155       .  T
C2130      N2132   1.157       .  T
C2135      C2136   1.431   1_455  A
C2135      C2140   1.433       .  A
C2136      C2137   1.427       .  A
C2136      C2141   1.444       .  S
C2137      C2138   1.411       .  A
C2137      C2144   1.452       .  S
C2138      C2139   1.415   1_655  A
C2139      C2140   1.432       .  A
C2139      C2142   1.449       .  S
C2140      C2143   1.450       .  S
C2141      N2148   1.155       .  T
C2142      N2147   1.157       .  T
C2143      N2145   1.158       .  T
C2144      N2146   1.157       .  T
C2149      C2150   1.405       .  A
C2149      C2154   1.409       .  A
C2150      C2151   1.406       .  A
C2150      C2155   1.453       .  S
C2151      C2152   1.423       .  A
C2151      C2158   1.453       .  S
C2152      C2153   1.418       .  A
C2153      C2154   1.398       .  A
C2153      C2156   1.449       .  S
C2154      C2157   1.458   1_655  S
C2155      N2162   1.157       .  T
C2156      N2161   1.156       .  T
C2157      N2159   1.157       .  T
C2158      N2160   1.158       .  T
C2163      C2164   1.421       .  A
C2163      C2168   1.415       .  A
C2164      C2165   1.427       .  A
C2164      C2169   1.450       .  S
C2165      C2166   1.415       .  A
C2165      C2172   1.449       .  S
C2166      C2167   1.423       .  A
C2167      C2168   1.428       .  A
C2167      C2170   1.450       .  S
C2168      C2171   1.449       .  S
C2169      N2176   1.157       .  T
C2170      N2175   1.157       .  T
C2171      N2173   1.157       .  T
C2172      N2174   1.157   1_545  T
