geometry optimzed in LAMMPS
_audit_creation_date              2020-12-01 
_audit_creation_method            'lammps2cif' 
_symmetry_space_group_name_H-M    'P1' 
_symmetry_Int_Tables_number       1 
_symmetry_cell_setting            triclinic 
loop_ 
_symmetry_equiv_pos_as_xyz 
  x,y,z 
_cell_length_a                    50.42699044 
_cell_length_b                    50.40603481898072 
_cell_length_c                    72.17091328968831 
_cell_angle_alpha                 89.99842535331977 
_cell_angle_beta                  90.07373958109419 
_cell_angle_gamma                 120.09890277900442 
loop_ 
_atom_site_label 
_atom_site_type_symbol 
_atom_site_fract_x 
_atom_site_fract_y 
_atom_site_fract_z 
_atom_site_charge 
O1          O  0.42834789  0.07234274  0.62162027    -0.81100
O2          O  0.45953814  0.10018894  0.54076994    -0.65800
O3          O  0.45742715  0.11076099  0.59283607    -1.12400
C4          C  0.36209332  0.10350005  0.57863531     1.05800
O5          O  0.44926274  0.13731343  0.53574799    -0.79000
O6          O  0.43148385  0.16134267  0.56308440    -0.66600
Ni7        Ni  0.46651378  0.08718657  0.60951200     1.34900
C8          C  0.43609356  0.16839451  0.58010725     0.84500
O9          O  0.49834773  0.10706401  0.56773032    -0.79600
O10         O  0.00519844  0.09925647  0.59630237    -0.89800
C11         C  0.46247684  0.12240454  0.53103325     0.84100
O12         O  0.44804130  0.04936450  0.59655476    -0.68000
O13         O  0.37378353  0.11264067  0.56250977    -0.87300
C14         C  0.43691481  0.04105491  0.58047709     0.84900
C15         C  0.01371168  0.10425682  0.57941278     1.06500
H16         H  0.40403357  0.07896295  0.56430508     0.38300
O17         O  0.41912849  0.09998002  0.56711604    -1.10000
O18         O  0.43224981  0.14915435  0.59282675    -0.66600
Ni19       Ni  0.41670471  0.10508473  0.59326153     1.26300
O20         O  0.43904896  0.05973057  0.56795038    -0.66900
O21         O  0.37562392  0.09844009  0.59204301    -0.79200
C22         C  0.42205940  0.09055087  0.62979342     0.84300
O23         O  0.41634268  0.10822283  0.62009176    -0.66300
Ni24       Ni  0.41172522  0.12384422  0.54992798     1.27400
Ni25       Ni  0.45874448  0.10392611  0.56697659     1.26100
H26         H  0.47195775  0.13208317  0.59529589     0.38800
O27         O  0.09185699  0.15133648  0.37922567    -0.81100
O28         O  0.05183293  0.14337191  0.45984991    -0.65800
O29         O  0.05986620  0.15684063  0.40784928    -1.12400
C30         C  0.15753930  0.24108631  0.42484667     1.05800
O31         O  0.06808366  0.19204388  0.46567790    -0.79000
O32         O  0.09417578  0.23699948  0.44009149    -0.66600
Ni33       Ni  0.05466682  0.12479883  0.39164160     1.34900
C34         C  0.08507417  0.23771379  0.42381329     0.84500
O35         O  0.01514091  0.11413325  0.43160218    -0.79600
O36         O  0.01701598  0.09591619  0.40340612    -0.89800
C37         C  0.05096007  0.16373777  0.46965316     0.84100
O38         O  0.07741741  0.11085972  0.40528911    -0.68000
O39         O  0.14729579  0.23588456  0.44149431    -0.87300
C40         C  0.08124690  0.10925004  0.42246356     0.84900
C41         C  0.00371359  0.09407952  0.41878840     1.06500
H42         H  0.11044526  0.17437799  0.43664595     0.38300
O43         O  0.09674737  0.18225305  0.43451477    -1.10000
O44         O  0.08370747  0.21981232  0.41082746    -0.66600
Ni45       Ni  0.10016633  0.19231582  0.40870036     1.26300
O46         O  0.07191745  0.12087640  0.43460816    -0.66900
O47         O  0.14115695  0.22708742  0.41066731    -0.79200
C48         C  0.09586533  0.17563935  0.37174952     0.84300
O49         O  0.10084058  0.19816585  0.38210062    -0.66300
Ni50       Ni  0.10739087  0.21278096  0.45281644     1.27400
Ni51       Ni  0.05574663  0.14844637  0.43372236     1.26100
H52         H  0.04528609  0.16299444  0.40428058     0.38800
O53         O  0.07257792  0.42917615  0.38268308    -0.81100
O54         O  0.09216398  0.45052973  0.46412624    -0.65800
O55         O  0.10833239  0.45436968  0.41281005    -1.12400
C56         C  0.09354089  0.35456775  0.42455486     1.05800
O57         O  0.12822719  0.43917088  0.46954589    -0.79000
O58         O  0.15159188  0.41836644  0.44313723    -0.66600
Ni59       Ni  0.08766996  0.46648274  0.39590535     1.34900
C60         C  0.16217230  0.42768969  0.42699802     0.84500
O61         O  0.10288208  0.99429122  0.43838489    -0.79600
O62         O  0.10618416  0.00739992  0.40832187    -0.89800
C63         C  0.11477501  0.45416811  0.47369867     0.84100
O64         O  0.04861553  0.44843841  0.40743245    -0.68000
O65         O  0.09886557  0.36341233  0.44154317    -0.87300
C66         C  0.03782071  0.43461299  0.42261790     0.84900
C67         C  0.10635704  0.01323340  0.42553386     1.06500
H68         H  0.07195017  0.39815385  0.43826143     0.38300
O69         O  0.09347857  0.41295273  0.43687029    -1.10000
O70         O  0.14586417  0.42858151  0.41368642    -0.66600
Ni71       Ni  0.10201409  0.41337581  0.41112430     1.26300
O72         O  0.05463413  0.43419761  0.43557934    -0.66900
O73         O  0.09481584  0.37182272  0.41108496    -0.79200
C74         C  0.09052305  0.42222142  0.37476825     0.84300
O75         O  0.10760941  0.41567807  0.38450412    -0.66300
Ni76       Ni  0.11287493  0.40152140  0.45488060     1.27400
Ni77       Ni  0.09854733  0.45294176  0.43828774     1.26100
H78         H  0.12997378  0.46879535  0.41146974     0.38800
O79         O  0.15105525  0.08851904  0.61822995    -0.81100
O80         O  0.14471102  0.05540852  0.53835715    -0.65800
O81         O  0.15910341  0.05833679  0.58997300    -1.12400
C82         C  0.24388186  0.15666986  0.57453138     1.05800
O83         O  0.19252532  0.06737133  0.53304947    -0.79000
O84         O  0.23915304  0.09412941  0.55862522    -0.66600
Ni85       Ni  0.12728286  0.04950625  0.60704958     1.34900
C86         C  0.24165501  0.08787319  0.57533653     0.84500
O87         O  0.11415429  0.01624648  0.56559264    -0.79600
O88         O  0.10142167  0.01045626  0.59585578    -0.89800
C89         C  0.16401162  0.05233590  0.52882437     0.84100
O90         O  0.10671945  0.06676422  0.59439955    -0.68000
O91         O  0.23874441  0.14701396  0.55765285    -0.87300
C92         C  0.10852315  0.07720601  0.57826015     0.84900
C93         C  0.09679320  0.00100835  0.57909451     1.06500
H94         H  0.17749610  0.11118760  0.56227984     0.38300
O95         O  0.18460679  0.09682818  0.56426256    -1.10000
O96         O  0.22262670  0.08435510  0.58810087    -0.66600
Ni97       Ni  0.19387795  0.09924280  0.59000533     1.26300
O98         O  0.12436319  0.07478467  0.56546897    -0.66900
O99         O  0.22845641  0.14043189  0.58845379    -0.79200
C100        C  0.17550678  0.09507595  0.62652187     0.84300
O101        O  0.19853475  0.09967062  0.61676158    -0.66300
Ni102      Ni  0.21466549  0.10702112  0.54594675     1.27400
Ni103      Ni  0.14991782  0.05649532  0.56436177     1.26100
H104        H  0.16616488  0.04402735  0.59232751     0.38800
O105        O  0.36380227  0.44569863  0.38163010    -0.81100
O106        O  0.36905936  0.41257527  0.46088849    -0.65800
O107        O  0.35426639  0.40538795  0.40924521    -1.12400
C108        C  0.27248912  0.42189521  0.42714134     1.05800
O109        O  0.32097453  0.37868942  0.46686532    -0.79000
O110        O  0.27615644  0.35989760  0.44109233    -0.66600
Ni111      Ni  0.38686287  0.42955316  0.39264195     1.34900
C112        C  0.27373266  0.35150466  0.42431460     0.84500
O113        O  0.39773230  0.40343088  0.43301595    -0.79600
O114        O  0.41225592  0.41529036  0.40329521    -0.89800
C115        C  0.34947203  0.39057059  0.47051746     0.84100
O116        O  0.40696696  0.46664554  0.40630051    -0.68000
O117        O  0.27620533  0.41352478  0.44325767    -0.87300
C118        C  0.40591425  0.47350076  0.42301782     0.84900
C119        C  0.41534391  0.40676575  0.41942606     1.06500
H120        H  0.33801388  0.43917937  0.43878275     0.38300
O121        O  0.33003569  0.41771714  0.43609051    -1.10000
O122        O  0.29053495  0.36921752  0.41129646    -0.66600
Ni123      Ni  0.32046011  0.41303468  0.41023567     1.26300
O124        O  0.39061467  0.45381259  0.43530305    -0.66900
O125        O  0.28741362  0.42185784  0.41275128    -0.79200
C126        C  0.33877284  0.42834884  0.37360397     0.84300
O127        O  0.31546758  0.41061464  0.38343659    -0.66300
Ni128      Ni  0.29966275  0.39695443  0.45427265     1.27400
Ni129      Ni  0.36343206  0.41017884  0.43499847     1.26100
H130        H  0.34651510  0.38413073  0.40606673     0.38800
O131        O  0.44558877  0.36657624  0.62052909    -0.81100
O132        O  0.41622508  0.36830533  0.53978269    -0.65800
O133        O  0.40646232  0.35594244  0.59172316    -1.12400
C134        C  0.42687389  0.27527310  0.57797881     1.05800
O135        O  0.38473592  0.31906413  0.53408824    -0.79000
O136        O  0.36540719  0.27492138  0.56052878    -0.66600
Ni137      Ni  0.42999774  0.38904125  0.60820886     1.34900
C138        C  0.35501756  0.27341723  0.57673427     0.84500
O139        O  0.40592176  0.39870428  0.56662253    -0.79600
O140        O  0.41665579  0.41412603  0.59635702    -0.89800
C141        C  0.39654419  0.34724130  0.52953412     0.84100
O142        O  0.46769311  0.40849984  0.59524411    -0.68000
O143        O  0.42092228  0.27836265  0.56108845    -0.87300
C144        C  0.47520931  0.40728767  0.57871454     0.84900
C145        C  0.40943043  0.41713711  0.57986233     1.06500
H146        H  0.44271672  0.33946934  0.56460834     0.38300
O147        O  0.42096549  0.33100960  0.56636055    -1.10000
O148        O  0.37077761  0.29165539  0.58991796    -0.66600
Ni149      Ni  0.41434777  0.32233764  0.59221529     1.26300
O150        O  0.45612421  0.39172096  0.56619855    -0.66900
O151        O  0.42384882  0.28983349  0.59156096    -0.79200
C152        C  0.42811971  0.34166554  0.62856669     0.84300
O153        O  0.41013976  0.31822838  0.61891639    -0.66300
Ni154      Ni  0.40334022  0.29971621  0.54837917     1.27400
Ni155      Ni  0.41265714  0.36408046  0.56586581     1.26100
H156        H  0.38507698  0.34826570  0.59440236     0.38800
O157        O  0.02848045  0.27775300  0.04992685    -0.81100
O158        O  0.03020222  0.25500769  0.13119540    -0.65800
O159        O  0.01634693  0.24080388  0.07975464    -1.12400
C160        C  0.42894929  0.24899000  0.09334089     1.05800
O161        O  0.48151117  0.21401157  0.13635311    -0.79000
O162        O  0.43846333  0.19084183  0.10937252    -0.66600
Ni163      Ni  0.04936428  0.26094694  0.06281013     1.34900
C164        C  0.43672743  0.18354775  0.09242301     0.84500
O165        O  0.06018616  0.24353633  0.10531664    -0.79600
O166        O  0.07218525  0.24528291  0.07519186    -0.89800
C167        C  0.01179648  0.23193877  0.14060234     0.84100
O168        O  0.07197902  0.29967368  0.07483881    -0.68000
O169        O  0.43172707  0.24084554  0.10978309    -0.87300
C170        C  0.06913613  0.31000808  0.09024912     0.84900
C171        C  0.07602076  0.24146487  0.09224640     1.06500
H172        H  0.99762295  0.27635689  0.10742260     0.38300
O173        O  0.48929286  0.25224061  0.10511561    -1.10000
O174        O  0.45309997  0.20249198  0.07979867    -0.66600
Ni175      Ni  0.48182755  0.24656044  0.07904199     1.26300
O176        O  0.05134939  0.29305989  0.10298168    -0.66900
O177        O  0.44734793  0.25315485  0.07997205    -0.79200
C178        C  0.00308349  0.26059620  0.04220778     0.84300
O179        O  0.47843699  0.24274395  0.05228852    -0.66300
Ni180      Ni  0.45788466  0.22864465  0.12241618     1.27400
Ni181      Ni  0.02521241  0.24925096  0.10535837     1.26100
H182        H  0.00812997  0.21906571  0.07802499     0.38800
O183        O  0.11304349  0.20060976  0.28268958    -0.81100
O184        O  0.08827049  0.20488453  0.20218858    -0.65800
O185        O  0.07572788  0.19192341  0.25380890    -1.12400
C186        C  0.09130265  0.10780109  0.24066760     1.05800
O187        O  0.05446605  0.15631320  0.19672598    -0.79000
O188        O  0.03364847  0.11197189  0.22257548    -0.66600
Ni189      Ni  0.09823437  0.22414408  0.27071118     1.34900
C190        C  0.02206252  0.11143198  0.23826019     0.84500
O191        O  0.07708111  0.23510744  0.22868245    -0.79600
O192        O  0.08465601  0.24913116  0.25876990    -0.89800
C193        C  0.06644708  0.18469113  0.19263949     0.84100
O194        O  0.13663608  0.24464842  0.25852500    -0.68000
O195        O  0.08777131  0.11265624  0.22361443    -0.87300
C196        C  0.14566393  0.24309096  0.24245056     0.84900
C197        C  0.07795023  0.25214581  0.24209314     1.06500
H198        H  0.11200065  0.17402808  0.22767994     0.38300
O199        O  0.09029105  0.16636445  0.22901486    -1.10000
O200        O  0.03763734  0.12903749  0.25167989    -0.66600
Ni201      Ni  0.08165618  0.15715501  0.25473293     1.26300
O202        O  0.12749109  0.22724165  0.22954775    -0.66900
O203        O  0.08840104  0.12258815  0.25424107    -0.79200
C204        C  0.09464772  0.17645067  0.29112834     0.84300
O205        O  0.07614916  0.15316051  0.28145587    -0.66300
Ni206      Ni  0.07200023  0.13559447  0.21080031     1.27400
Ni207      Ni  0.08358600  0.20043251  0.22820174     1.26100
H208        H  0.05430136  0.18495042  0.25589668     0.38800
O209        O  0.31515643  0.41807784  0.28545302    -0.81100
O210        O  0.30917175  0.39383508  0.20483335    -0.65800
O211        O  0.32929655  0.39541051  0.25538258    -1.12400
C212        C  0.40692676  0.49630453  0.24018827     1.05800
O213        O  0.35677569  0.40791278  0.19740803    -0.79000
O214        O  0.40171672  0.42898480  0.22328355    -0.66600
Ni215      Ni  0.29802213  0.37934293  0.27339824     1.34900
C216        C  0.40688348  0.42557303  0.24006562     0.84500
O217        O  0.28396944  0.35226360  0.23134204    -0.79600
O218        O  0.27865786  0.34002502  0.26153831    -0.89800
C219        C  0.32803950  0.39227150  0.19406321     0.84100
O220        O  0.26950957  0.38822282  0.26194043    -0.68000
O221        O  0.40460418  0.48432788  0.22415623    -0.87300
C222        C  0.26910148  0.40122113  0.24701917     0.84900
C223        C  0.27076576  0.33337004  0.24458984     1.06500
H224        H  0.34118020  0.44841331  0.22794488     0.38300
O225        O  0.34969964  0.43527323  0.23005625    -1.10000
O226        O  0.39247460  0.42871451  0.25364897    -0.66600
Ni227      Ni  0.35975063  0.43830053  0.25580320     1.26300
O228        O  0.28913450  0.40849153  0.23446157    -0.66900
O229        O  0.39036557  0.48139454  0.25417563    -0.79200
C230        C  0.34131481  0.43018216  0.29293545     0.84300
O231        O  0.36486133  0.43899776  0.28258948    -0.66300
Ni232      Ni  0.37974493  0.44581577  0.21161462     1.27400
Ni233      Ni  0.31739264  0.39391722  0.23034593     1.26100
H234        H  0.33962476  0.38361574  0.25627552     0.38800
O235        O  0.22933968  0.25373774  0.04745818    -0.81100
O236        O  0.25846897  0.29510763  0.12749805    -0.65800
O237        O  0.26561418  0.28842176  0.07567691    -1.12400
C238        C  0.25418759  0.19195223  0.09335329     1.05800
O239        O  0.29315863  0.28175325  0.13297249    -0.79000
O240        O  0.31095982  0.25221563  0.10843675    -0.66600
Ni241      Ni  0.23691728  0.29028943  0.05943639     1.34900
C242        C  0.32141970  0.26080114  0.09220798     0.84500
O243        O  0.26373906  0.33166183  0.09923751    -0.79600
O244        O  0.24194320  0.32651282  0.07118076    -0.89800
C245        C  0.28066543  0.29763198  0.13706172     0.84100
O246        O  0.20053300  0.26538919  0.07300061    -0.68000
O247        O  0.25630455  0.20131051  0.11014579    -0.87300
C248        C  0.19516186  0.26296278  0.09020073     0.84900
C249        C  0.25156694  0.34011511  0.08673121     1.06500
H250        H  0.23340562  0.23745940  0.10381927     0.38300
O251        O  0.25497743  0.25188657  0.10220051    -1.10000
O252        O  0.30723498  0.26679180  0.07966808    -0.66600
Ni253      Ni  0.26304710  0.24912208  0.07675530     1.26300
O254        O  0.21633344  0.27383701  0.10223227    -0.66900
O255        O  0.25832295  0.20884428  0.07912341    -0.79200
C256        C  0.25099536  0.25225818  0.03988047     0.84300
O257        O  0.26956054  0.24904759  0.05032067    -0.66300
Ni258      Ni  0.27401706  0.24168713  0.12101290     1.27400
Ni259      Ni  0.26030171  0.29203256  0.10143849     1.26100
H260        H  0.28610995  0.30398001  0.07210282     0.38800
O261        O  0.24152396  0.48159641  0.04904061    -0.81100
O262        O  0.22047210  0.48287347  0.12998268    -0.65800
O263        O  0.21891137  0.49722224  0.07861004    -1.12400
C264        C  0.31915970  0.07637022  0.09021619     1.05800
O265        O  0.23462062  0.02781371  0.13544314    -0.79000
O266        O  0.25550095  0.07267552  0.10949731    -0.66600
Ni267      Ni  0.20328151  0.46465381  0.06151686     1.34900
C268        C  0.24797333  0.07559837  0.09316559     0.84500
O269        O  0.17804991  0.45223498  0.10381733    -0.79600
O270        O  0.16455018  0.44563217  0.07377796    -0.89800
C271        C  0.22045038  0.50333201  0.14018954     0.84100
O272        O  0.21360380  0.43807420  0.07416053    -0.68000
O273        O  0.30992213  0.07353083  0.10706803    -0.87300
C274        C  0.22792066  0.43974668  0.08896851     0.84900
C275        C  0.15926581  0.43726769  0.09070294     1.06500
H276        H  0.27239796  0.01113141  0.10357582     0.38300
O277        O  0.25873172  0.01922845  0.10219552    -1.10000
O278        O  0.24792982  0.05957301  0.07941598    -0.66600
Ni279      Ni  0.25940489  0.02829471  0.07650706     1.26300
O280        O  0.23543938  0.46091931  0.10082844    -0.66900
O281        O  0.30203992  0.06031487  0.07671220    -0.79200
C282        C  0.25027483  0.00833471  0.04007445     0.84300
O283        O  0.25810506  0.03232635  0.04981576    -0.66300
Ni284      Ni  0.27183555  0.04976618  0.12051586     1.27400
Ni285      Ni  0.21902659  0.48787994  0.10400796     1.26100
H286        H  0.20433262  0.00552643  0.07716000     0.38800
O287        O  0.08450806  0.40186435  0.28665611    -0.81100
O288        O  0.12531245  0.43413799  0.20758058    -0.65800
O289        O  0.11857795  0.44045788  0.25942586    -1.12400
C290        C  0.02298484  0.43113317  0.24207960     1.05800
O291        O  0.11402053  0.47061664  0.20304824    -0.79000
O292        O  0.08852210  0.49040739  0.22837127    -0.66600
Ni293      Ni  0.12342961  0.41438733  0.27616068     1.34900
C294        C  0.09709376  0.49895851  0.24491321     0.84500
O295        O  0.16118795  0.43725077  0.23568207    -0.79600
O296        O  0.16198359  0.42454348  0.26562560    -0.89800
C297        C  0.12935492  0.45764219  0.19876972     0.84100
O298        O  0.10406144  0.37763587  0.26240090    -0.68000
O299        O  0.03385521  0.43715783  0.22557161    -0.87300
C300        C  0.09638649  0.37075390  0.24565147     0.84900
C301        C  0.17281930  0.43012755  0.24919845     1.06500
H302        H  0.06761062  0.41001528  0.23031916     0.38300
O303        O  0.08243266  0.43121621  0.23284201    -1.10000
O304        O  0.09674906  0.48107531  0.25753663    -0.64800
Ni305      Ni  0.07881117  0.43688300  0.25860070     1.26300
O306        O  0.10215275  0.39074518  0.23317804    -0.66900
O307        O  0.03850095  0.43193761  0.25634927    -0.79200
C308        C  0.08037189  0.42141774  0.29495541     0.84300
O309        O  0.07729927  0.44069042  0.28518614    -0.66300
Ni310      Ni  0.07414230  0.45323050  0.21491956     1.27400
Ni311      Ni  0.12205111  0.43514877  0.23368283     1.26100
H312        H  0.13368613  0.46131217  0.26262796     0.38800
O313        O  0.43262709  0.32222403  0.71600561    -0.81100
O314        O  0.39512373  0.30942131  0.79511962    -0.65800
O315        O  0.40157792  0.32936170  0.74417365    -1.12400
C316        C  0.49866830  0.41108115  0.76282969     1.05800
O317        O  0.40780916  0.35641091  0.80320623    -0.79000
O318        O  0.43003535  0.40271164  0.77791621    -0.66600
Ni319      Ni  0.39277348  0.29864898  0.72614151     1.34900
C320        C  0.42510543  0.40665227  0.76117125     0.84500
O321        O  0.35732463  0.28334819  0.76676820    -0.79600
O322        O  0.35276381  0.27328751  0.73617062    -0.89800
C323        C  0.39265450  0.32749123  0.80614324     0.84100
O324        O  0.40770716  0.27550741  0.73837993    -0.68000
O325        O  0.48597250  0.40701099  0.77875803    -0.87300
C326        C  0.41776882  0.27612834  0.75451610     0.84900
C327        C  0.34210941  0.26799459  0.75264055     1.06500
H328        H  0.45242241  0.34432884  0.77345916     0.38300
O329        O  0.43842982  0.35178818  0.77113113    -1.10000
O330        O  0.42868652  0.39240314  0.74763388    -0.66600
Ni331      Ni  0.44288878  0.36303091  0.74550006     1.26300
O332        O  0.41555586  0.29169353  0.76758201    -0.66900
O333        O  0.48451000  0.39585947  0.74834201    -0.79200
C334        C  0.43996442  0.34749294  0.70846904     0.84300
O335        O  0.44516809  0.36998649  0.71892613    -0.66300
Ni336      Ni  0.44661816  0.38082463  0.79002517     1.27400
Ni337      Ni  0.39794244  0.31782333  0.76945288     1.26100
H338        H  0.38793511  0.33725929  0.74191059     0.38800
O339        O  0.26328833  0.24124041  0.95288772    -0.81100
O340        O  0.29427519  0.25665047  0.87307295    -0.65800
O341        O  0.29087493  0.27580773  0.92332096    -1.12400
C342        C  0.19020436  0.25320932  0.90574338     1.05800
O343        O  0.28002787  0.28994474  0.86502338    -0.79000
O344        O  0.25307198  0.31212523  0.88815632    -0.66600
Ni345      Ni  0.30269950  0.25801296  0.94230156     1.34900
C346        C  0.26047484  0.32405898  0.90415519     0.84500
O347        O  0.33386804  0.27101583  0.90088783    -0.79600
O348        O  0.34228261  0.27303737  0.93161673    -0.89800
C349        C  0.29690034  0.27792663  0.86254830     0.84100
O350        O  0.28897839  0.21867701  0.93209542    -0.68000
O351        O  0.20054569  0.25751307  0.88907745    -0.87300
C352        C  0.27583820  0.20609384  0.91705911     0.84900
C353        C  0.35077782  0.27401441  0.91485876     1.06500
H354        H  0.23819827  0.23488921  0.89639050     0.38300
O355        O  0.25186266  0.25674656  0.89748275    -1.10000
O356        O  0.26158632  0.30940017  0.91830588    -0.66600
Ni357      Ni  0.24883111  0.26654686  0.92254253     1.26300
O358        O  0.27565010  0.22124188  0.90306597    -0.66900
O359        O  0.20663100  0.25639878  0.92009805    -0.79200
C360        C  0.25513299  0.25894003  0.95976367     0.84300
O361        O  0.24792401  0.27417988  0.94883161    -0.66300
Ni362      Ni  0.24045574  0.27306871  0.87768058     1.27400
Ni363      Ni  0.29292081  0.26449675  0.89861861     1.26100
H364        H  0.30405001  0.29774382  0.92430078     0.38800
O365        O  0.20219258  0.11345793  0.71473480    -0.81100
O366        O  0.20731347  0.09047324  0.79579355    -0.65800
O367        O  0.19184725  0.07691358  0.74432021    -1.12400
C368        C  0.11124594  0.09723216  0.75860648     1.05800
O369        O  0.15883433  0.05795703  0.80193331    -0.79000
O370        O  0.11392144  0.03697523  0.77611747    -0.66600
Ni371      Ni  0.22392987  0.09687456  0.72689015     1.34900
C372        C  0.11197365  0.02629225  0.75991937     0.84500
O373        O  0.23561854  0.07807227  0.76902020    -0.79600
O374        O  0.24780557  0.08199668  0.73874881    -0.89800
C375        C  0.18724190  0.06926153  0.80576875     0.84100
O376        O  0.24654955  0.13532922  0.73873933    -0.68000
O377        O  0.11525275  0.09166214  0.77542230    -0.87300
C378        C  0.24546407  0.14568133  0.75450683     0.84900
C379        C  0.25197285  0.07759732  0.75564997     1.06500
H380        H  0.17682048  0.11525218  0.77117644     0.38300
O381        O  0.16851487  0.09347230  0.76954887    -1.10000
O382        O  0.12882931  0.04232311  0.74646691    -0.66600
Ni383      Ni  0.15879004  0.08565960  0.74381743     1.26300
O384        O  0.22904892  0.12879940  0.76767168    -0.66900
O385        O  0.12608036  0.09511640  0.74480503    -0.79200
C386        C  0.17695749  0.09575185  0.70705436     0.84300
O387        O  0.15352294  0.07995194  0.71721432    -0.66300
Ni388      Ni  0.13805936  0.07547787  0.78792514     1.27400
Ni389      Ni  0.20155331  0.08526002  0.76982487     1.26100
H390        H  0.18342379  0.05515101  0.74251291     0.38800
O391        O  0.27848231  0.02466198  0.95258290    -0.81100
O392        O  0.25163043  0.03792721  0.87391124    -0.65800
O393        O  0.24015472  0.01890764  0.92514090    -1.12400
C394        C  0.25658921  0.43656391  0.90725769     1.05800
O395        O  0.22157480  0.49073901  0.86591384    -0.79000
O396        O  0.19748941  0.44560069  0.89159125    -0.66600
Ni397      Ni  0.26287055  0.04912150  0.94316843     1.34900
C398        C  0.18882774  0.44250173  0.90833150     0.84500
O399        O  0.24214606  0.06538945  0.90287294    -0.79600
O400        O  0.24870714  0.07499841  0.93353658    -0.89800
C401        C  0.23030696  0.01881385  0.86351302     0.84100
O402        O  0.30078150  0.07203142  0.93082928    -0.68000
O403        O  0.24844969  0.44055872  0.89112727    -0.87300
C404        C  0.30979575  0.07227377  0.91448397     0.84900
C405        C  0.24343597  0.08098948  0.91718124     1.06500
H406        H  0.27508282  0.00350563  0.89593954     0.38300
O407        O  0.25744172  0.49629102  0.89760786    -1.10000
O408        O  0.20687927  0.45733045  0.92165789    -0.66600
Ni409      Ni  0.25051329  0.48650754  0.92340570     1.26300
O410        O  0.29171234  0.05682744  0.90138322    -0.66900
O411        O  0.25853491  0.45278351  0.92148738    -0.79200
C412        C  0.25971223  0.00012025  0.96048833     0.84300
O413        O  0.24583009  0.48115432  0.95010109    -0.66300
Ni414      Ni  0.23577771  0.46654732  0.87928768     1.27400
Ni415      Ni  0.24757229  0.03040644  0.89986019     1.26100
H416        H  0.21871811  0.01143680  0.92757627     0.38800
O417        O  0.48826640  0.25640665  0.95484731    -0.81100
O418        O  0.48000578  0.22178375  0.87518540    -0.65800
O419        O  0.49616084  0.22589538  0.92662617    -1.12400
C420        C  0.07905464  0.32699541  0.91075066     1.05800
O421        O  0.03052471  0.23973075  0.86776266    -0.79000
O422        O  0.07563880  0.26379965  0.89333852    -0.66600
Ni423      Ni  0.46454739  0.21697457  0.94395586     1.34900
C424        C  0.07728727  0.25445418  0.90939007     0.84500
O425        O  0.45063907  0.18314784  0.90273797    -0.79600
O426        O  0.43870679  0.17737259  0.93312433    -0.89800
C427        C  0.49929244  0.21914635  0.86535084     0.84100
O428        O  0.44300299  0.23338546  0.93141103    -0.68000
O429        O  0.07470881  0.31723306  0.89396575    -0.87300
C430        C  0.44422251  0.24349541  0.91522570     0.84900
C431        C  0.43382277  0.16776037  0.91638374     1.06500
H432        H  0.01386258  0.28026055  0.89848801     0.38300
O433        O  0.02159623  0.26632236  0.90005212    -1.10000
O434        O  0.06037381  0.25340963  0.92295009    -0.66600
Ni435      Ni  0.03119807  0.26803129  0.92576670     1.26300
O436        O  0.46028014  0.24145939  0.90242556    -0.66900
O437        O  0.06476259  0.31000129  0.92469378    -0.79200
C438        C  0.01256907  0.26264431  0.96228531     0.84300
O439        O  0.03573804  0.26748952  0.95253820    -0.66300
Ni440      Ni  0.05171563  0.27823208  0.88156048     1.27400
Ni441      Ni  0.48612463  0.22350951  0.90111953     1.26100
H442        H  0.00435770  0.21272869  0.92744614     0.38800
O443        O  0.40515097  0.08996893  0.71865449    -0.81100
O444        O  0.43140410  0.12270849  0.79865823    -0.65800
O445        O  0.44327178  0.11963759  0.74707153    -1.12400
C446        C  0.43055354  0.02186231  0.76219153     1.05800
O447        O  0.46640133  0.10969030  0.80456499    -0.79000
O448        O  0.48943719  0.08848931  0.77842155    -0.66600
Ni449      Ni  0.42106081  0.12907220  0.72980244     1.34900
C450        C  0.49830922  0.09598749  0.76181701     0.84500
O451        O  0.44187613  0.16261899  0.77127875    -0.79600
O452        O  0.43566152  0.16833085  0.74088111    -0.89800
C453        C  0.45270166  0.12437764  0.80874455     0.84100
O454        O  0.38320851  0.11309579  0.74238753    -0.68000
O455        O  0.43723681  0.03241879  0.77875334    -0.87300
C456        C  0.37410808  0.10298638  0.75854829     0.84900
C457        C  0.44136809  0.17838261  0.75751414     1.06500
H458        H  0.40841469  0.06676275  0.77499779     0.38300
O459        O  0.42988106  0.08104711  0.77282219    -1.10000
O460        O  0.48051441  0.09425086  0.74869142    -0.66600
Ni461      Ni  0.43672422  0.07865293  0.74692089     1.26300
O462        O  0.39199134  0.10425078  0.77135088    -0.66900
O463        O  0.42975607  0.03735977  0.74832322    -0.79200
C464        C  0.42341537  0.08394006  0.71030879     0.84300
O465        O  0.44120931  0.07849565  0.72013037    -0.66300
Ni466      Ni  0.45107804  0.07143560  0.79082685     1.27400
Ni467      Ni  0.43595008  0.12166220  0.77265350     1.26100
H468        H  0.46473035  0.13382343  0.74482605     0.38800
C469        C  0.48796077  0.19495383  0.85068053    -0.00400
C470        C  0.45617610  0.17421486  0.84930135    -0.12300
C471        C  0.44422906  0.15051177  0.83617700     0.01800
C472        C  0.46415331  0.14669025  0.82422467    -0.00500
C473        C  0.49581126  0.16676622  0.82580940    -0.12200
C474        C  0.01053626  0.19504822  0.83710312     0.01700
H475        H  0.44039531  0.17642383  0.85849419     0.14700
H476        H  0.01353006  0.16851463  0.81472165     0.14700
C477        C  0.04322257  0.21594949  0.83676344     0.36400
C478        C  0.41144127  0.13023721  0.83539234     0.36300
N479        N  0.06942970  0.23262318  0.83634357    -0.44000
N480        N  0.38516096  0.11405971  0.83476123    -0.44000
C481        C  0.10264194  0.35994078  0.91350667    -0.00400
C482        C  0.10765146  0.38025544  0.89884169    -0.12300
C483        C  0.13390786  0.40924777  0.89815081     0.01800
C484        C  0.15656414  0.41830427  0.91208277    -0.00500
C485        C  0.14967117  0.39985858  0.92799995    -0.12200
C486        C  0.12263900  0.37103582  0.92896336     0.01700
H487        H  0.09162353  0.37289489  0.88734275     0.14700
H488        H  0.16636115  0.40685211  0.93910054     0.14700
C489        C  0.11686782  0.35299959  0.94555261     0.36400
C490        C  0.13762276  0.42865926  0.88247846     0.36300
N491        N  0.11205459  0.33895753  0.95906312    -0.44000
N492        N  0.14054067  0.44415472  0.86991423    -0.44000
C493        C  0.40530991  0.13846695  0.91260204    -0.00400
C494        C  0.38617700  0.13762515  0.89812153    -0.12300
C495        C  0.35514475  0.11469744  0.89745308     0.01800
C496        C  0.34311538  0.09183081  0.91125059    -0.00500
C497        C  0.36310296  0.09091017  0.92449723    -0.12200
C498        C  0.39392987  0.11390769  0.92527806     0.01700
H499        H  0.39466412  0.15646721  0.88834003     0.14700
H500        H  0.35413753  0.07308012  0.93497850     0.14700
C501        C  0.41311813  0.11247173  0.93966317     0.36400
C502        C  0.33553939  0.11728520  0.88387108     0.36300
N503        N  0.42853602  0.11131583  0.95115494    -0.44000
N504        N  0.31988356  0.11960802  0.87304516    -0.44000
C505        C  0.03224837  0.10808349  0.75664539    -0.00400
C506        C  0.03849320  0.09465921  0.74147319    -0.12300
C507        C  0.06594243  0.09383406  0.74060768     0.01800
C508        C  0.08712701  0.10563476  0.75547195    -0.00500
C509        C  0.08254290  0.12255846  0.76927837    -0.12200
C510        C  0.05578954  0.12444346  0.76972361     0.01700
H511        H  0.02099787  0.08274206  0.73100604     0.14700
H512        H  0.09937046  0.13330290  0.78024415     0.14700
C513        C  0.05281635  0.14282470  0.78399269     0.36400
C514        C  0.07079654  0.07942895  0.72476793     0.36300
N515        N  0.05100284  0.15805704  0.79532514    -0.44000
N516        N  0.07454099  0.06849820  0.71167656    -0.44000
C517        C  0.27930734  0.07499890  0.75984100    -0.00400
C518        C  0.29790617  0.09190755  0.77486098    -0.12300
C519        C  0.32870580  0.09946658  0.77578918     0.01800
C520        C  0.34086969  0.08903152  0.76185262    -0.00500
C521        C  0.32116291  0.06893733  0.74823033    -0.12200
C522        C  0.29076537  0.06214652  0.74695839     0.01700
H523        H  0.28944080  0.10208390  0.78477515     0.14700
H524        H  0.33027815  0.06049217  0.73759984     0.14700
C525        C  0.27270640  0.04395174  0.73142821     0.36400
C526        C  0.34786044  0.12095856  0.78977980     0.36300
N527        N  0.25850733  0.02965370  0.71883272    -0.44000
N528        N  0.36257622  0.13837430  0.80111758    -0.44000
C529        C  0.21949600  0.03048111  0.84802840    -0.00400
C530        C  0.18796808  0.01941050  0.84595722    -0.12300
C531        C  0.17681624  0.03177060  0.83264387     0.01800
C532        C  0.19748271  0.05585782  0.82085847    -0.00500
C533        C  0.22909016  0.06637169  0.82280382    -0.12200
C534        C  0.24009481  0.05393545  0.83610438     0.01700
H535        H  0.17195499  0.00152458  0.85514282     0.14700
H536        H  0.24548361  0.08427117  0.81377024     0.14700
C537        C  0.27263434  0.06508888  0.83691314     0.36400
C538        C  0.14406504  0.01923675  0.83163692     0.36300
N539        N  0.29867683  0.07386654  0.83750986    -0.44000
N540        N  0.11779801  0.00910295  0.83084977    -0.44000
C541        C  0.42584494  0.25828004  0.91168839    -0.00400
C542        C  0.42584003  0.27801257  0.92537808    -0.12300
C543        C  0.40357590  0.28670448  0.92550618     0.01800
C544        C  0.38045944  0.27527940  0.91175991    -0.00500
C545        C  0.38286043  0.25869158  0.89676490    -0.12200
C546        C  0.40533126  0.25004513  0.89665356     0.01700
H547        H  0.44226910  0.28521827  0.93666482     0.14700
H548        H  0.36548596  0.24996450  0.88599951     0.14700
C549        C  0.40480348  0.23020868  0.88203794     0.36400
C550        C  0.40403385  0.30585653  0.94054226     0.36300
N551        N  0.40439424  0.21432776  0.87032146    -0.44000
N552        N  0.40440114  0.32107524  0.95266015    -0.44000
C553        C  0.15781407  0.24597358  0.90851959    -0.00400
C554        C  0.14993156  0.25543150  0.92498834    -0.12300
C555        C  0.12215080  0.25556381  0.92656769     0.01800
C556        C  0.10137172  0.24570846  0.91155069    -0.00500
C557        C  0.10773508  0.23294055  0.89601946    -0.12200
C558        C  0.13547590  0.23308828  0.89431529     0.01700
H559        H  0.16646526  0.26494583  0.93618681     0.14700
H560        H  0.09170554  0.22459218  0.88450417     0.14700
C561        C  0.14060266  0.22086926  0.87745091     0.36400
C562        C  0.11707785  0.26858062  0.94302952     0.36300
N563        N  0.14451398  0.21113967  0.86385498    -0.44000
N564        N  0.11336031  0.27907358  0.95633996    -0.44000
C565        C  0.24164663  0.10937182  0.91514928    -0.00400
C566        C  0.23883843  0.12293473  0.93146641    -0.12300
C567        C  0.24826857  0.15401151  0.93215127     0.01800
C568        C  0.26039034  0.17227777  0.91608883    -0.00500
C569        C  0.25870749  0.15784667  0.89914786    -0.12200
C570        C  0.24916653  0.12650565  0.89850461     0.01700
H571        H  0.23136303  0.10974587  0.94419645     0.14700
H572        H  0.26645038  0.17134256  0.88654874     0.14700
C573        C  0.24853812  0.11320464  0.88071689     0.36400
C574        C  0.24606585  0.16640898  0.94978198     0.36300
N575        N  0.24773465  0.10282486  0.86629579    -0.44000
N576        N  0.24425639  0.17593400  0.96402558    -0.44000
C577        C  0.26372885  0.41122471  0.90862961    -0.00400
C578        C  0.27295198  0.40313627  0.89226171    -0.12300
C579        C  0.27317794  0.37570884  0.89065874     0.01800
C580        C  0.26605517  0.35600274  0.90618132    -0.00500
C581        C  0.25967349  0.36547888  0.92318022    -0.12200
C582        C  0.25787507  0.39249235  0.92444068     0.01700
H583        H  0.27805262  0.41743120  0.88003830     0.14700
H584        H  0.25369284  0.35059281  0.93516690     0.14700
C585        C  0.24739879  0.39883781  0.94157566     0.36400
C586        C  0.27808802  0.36763451  0.87227514     0.36300
N587        N  0.23881956  0.40374757  0.95530916    -0.44000
N588        N  0.28108606  0.36125881  0.85732393    -0.44000
C589        C  0.03133973  0.43498808  0.76152115    -0.00400
C590        C  0.04331679  0.44904372  0.74426419    -0.12300
C591        C  0.07224512  0.47589192  0.74303950     0.01800
C592        C  0.08929162  0.48932032  0.75936511    -0.00500
C593        C  0.07920831  0.47268079  0.77597488    -0.12200
C594        C  0.05069870  0.44610766  0.77727006     0.01700
H595        H  0.02947005  0.44008725  0.73185591     0.14700
H596        H  0.09609025  0.98142054  0.78445581     0.14700
C597        C  0.04174673  0.43182653  0.79529819     0.36400
C598        C  0.08320965  0.48957365  0.72507162     0.36300
N599        N  0.53488064  0.41881595  0.80910305    -0.44000
N600        N  0.09209916  0.50033759  0.71062261    -0.44000
C601        C  0.31150589  0.24072499  0.75548434    -0.00400
C602        C  0.30586116  0.22372447  0.77194831    -0.12300
C603        C  0.28229117  0.19302547  0.77281516     0.01800
C604        C  0.26433308  0.17916197  0.75691612    -0.00500
C605        C  0.26718369  0.19748107  0.74155595    -0.12200
C606        C  0.29028727  0.22808235  0.74077048     0.01700
H607        H  0.32140353  0.23346525  0.78358662     0.14700
H608        H  0.25231136  0.18733718  0.72963151     0.14700
C609        C  0.29249762  0.24540956  0.72431168     0.36400
C610        C  0.27877510  0.17582394  0.78952800     0.36300
N611        N  0.29420524  0.25920903  0.71110754    -0.44000
N612        N  0.27586571  0.16218707  0.80300743    -0.44000
C613        C  0.41718706  0.43103384  0.75770924    -0.00400
C614        C  0.43056968  0.45109437  0.74262709    -0.12300
C615        C  0.43170763  0.47958040  0.74208757     0.01800
C616        C  0.41941992  0.48840825  0.75689907    -0.00500
C617        C  0.40325845  0.46697564  0.77088117    -0.12200
C618        C  0.40174176  0.43847740  0.77130116     0.01700
H619        H  0.44238961  0.44572221  0.73203480     0.14700
H620        H  0.39291949  0.47308920  0.78203593     0.14700
C621        C  0.38528901  0.41782154  0.78635552     0.36400
C622        C  0.45552097  0.00346338  0.73059752     0.36300
N623        N  0.37220183  0.40124968  0.79841657    -0.44000
N624        N  0.47033105  0.02078290  0.71925612    -0.44000
C625        C  0.44551057  0.20939338  0.76036206    -0.00400
C626        C  0.45555324  0.22934529  0.74511672    -0.12300
C627        C  0.44934588  0.25327053  0.74385891     0.01800
C628        C  0.43216180  0.25723237  0.75789537    -0.00500
C629        C  0.42642545  0.24053379  0.77443291    -0.12200
C630        C  0.43365549  0.21706349  0.77591851     0.01700
H631        H  0.46651005  0.22497779  0.73351819     0.14700
H632        H  0.41480928  0.24460634  0.78576385     0.14700
C633        C  0.42818662  0.20109568  0.79330519     0.36400
C634        C  0.46028741  0.27290667  0.72776273     0.36300
N635        N  0.42464708  0.18911050  0.80749581    -0.44000
N636        N  0.46940416  0.28865042  0.71489367    -0.44000
C637        C  0.32196294  0.29088091  0.84852341    -0.00400
C638        C  0.32925756  0.27121970  0.83887355    -0.12300
C639        C  0.35306548  0.28260342  0.82578253     0.01800
C640        C  0.36976923  0.31447927  0.82161356    -0.00500
C641        C  0.36338183  0.33419340  0.83203218    -0.12200
C642        C  0.34040525  0.32281397  0.84563539     0.01700
H643        H  0.31635802  0.24678062  0.84163498     0.14700
H644        H  0.37663685  0.35874279  0.82975481     0.14700
C645        C  0.33851859  0.34458288  0.85772774     0.36400
C646        C  0.36021018  0.26092148  0.81737658     0.36300
N647        N  0.33797115  0.36219022  0.86776532    -0.44000
N648        N  0.36610816  0.24357539  0.81079181    -0.44000
C649        C  0.25731197  0.00066023  0.98102812    -0.00400
C650        C  0.28018233  0.02650628  0.99066875    -0.12300
C651        C  0.27808068  0.03039004  0.00972688     0.01800
C652        C  0.25255765  0.00828282  0.01962146    -0.00500
C653        C  0.22974426  0.98245123  0.01006698    -0.12200
C654        C  0.23195522  0.97833280  0.99106143     0.01700
H655        H  0.30008510  0.04389574  0.98331545     0.14700
H656        H  0.21011400  0.96500389  0.01760594     0.14700
C657        C  0.21367671  0.45086960  0.98219434     0.36400
C658        C  0.30336468  0.05608698  0.01886856     0.36300
N659        N  0.19511129  0.42874878  0.97502422    -0.44000
N660        N  0.32403211  0.07658429  0.02600914    -0.44000
C661        C  0.15375449  0.47109580  0.18425884    -0.00400
C662        C  0.17250292  0.45804775  0.18153203    -0.12300
C663        C  0.19550294  0.46929870  0.16800859     0.01800
C664        C  0.19987936  0.49374706  0.15651705    -0.00500
C665        C  0.18248143  0.50793649  0.15980663    -0.12200
C666        C  0.15979170  0.49715298  0.17353848     0.01700
H667        H  0.16946041  0.43904252  0.19009162     0.14700
H668        H  0.17772963  0.01615199  0.14618903     0.14700
C669        C  0.13117022  0.99879304  0.16871647     0.36400
C670        C  0.21536034  0.45641650  0.16682935     0.36300
N671        N  0.11420723  0.00792110  0.16817354    -0.44000
N672        N  0.23158952  0.44643402  0.16607014    -0.44000
C673        C  0.25559551  0.26116915  0.98021948    -0.00400
C674        C  0.27695276  0.25595965  0.98982908    -0.12300
C675        C  0.27661506  0.25363353  0.00914604     0.01800
C676        C  0.25387056  0.25558100  0.01935246    -0.00500
C677        C  0.23337959  0.26224209  0.00971664    -0.12200
C678        C  0.23434989  0.26544557  0.99040165     0.01700
H679        H  0.29408672  0.25351039  0.98214387     0.14700
H680        H  0.21629840  0.26494889  0.01725183     0.14700
C681        C  0.21279337  0.27218054  0.98141977     0.36400
C682        C  0.30019485  0.24978470  0.01793596     0.36300
N683        N  0.19567357  0.27782096  0.97424003    -0.44000
N684        N  0.31946428  0.24715943  0.02486060    -0.44000
C685        C  0.24511635  0.36509228  0.09047188    -0.00400
C686        C  0.26740486  0.39332043  0.09801506    -0.12300
C687        C  0.26194928  0.41812203  0.09899389     0.01800
C688        C  0.23394512  0.41440743  0.09228583    -0.00500
C689        C  0.21089354  0.38538295  0.08658832    -0.12200
C690        C  0.21609624  0.36094153  0.08560494     0.01700
H691        H  0.28939589  0.39640058  0.10228761     0.14700
H692        H  0.18878957  0.38199636  0.08219644     0.14700
C693        C  0.19108229  0.33200416  0.07909192     0.36400
C694        C  0.28569747  0.44722182  0.10604112     0.36300
N695        N  0.17082957  0.30919778  0.07367374    -0.44000
N696        N  0.30464493  0.47050865  0.11183127    -0.44000
C697        C  0.24726346  0.15986050  0.09056909    -0.00400
C698        C  0.22961765  0.13790194  0.10399940    -0.12300
C699        C  0.22683552  0.10886747  0.10401741     0.01800
C700        C  0.24169019  0.10105577  0.09027687    -0.00500
C701        C  0.25687936  0.12186228  0.07583711    -0.12200
C702        C  0.26014799  0.15122376  0.07596944     0.01700
H703        H  0.21898812  0.14388389  0.11504553     0.14700
H704        H  0.26853946  0.11620454  0.06531137     0.14700
C705        C  0.27944469  0.17281074  0.06203072     0.36400
C706        C  0.20958863  0.08798463  0.11878377     0.36300
N707        N  0.29510484  0.19007750  0.05090097    -0.44000
N708        N  0.19575469  0.07148108  0.13070374    -0.44000
C709        C  0.49207038  0.42654839  0.24362315    -0.00400
C710        C  0.46978935  0.40742195  0.23071269    -0.12300
C711        C  0.44048705  0.40400948  0.23064189     0.01800
C712        C  0.43298906  0.42037250  0.24350263    -0.00500
C713        C  0.45429794  0.43737263  0.25745938    -0.12200
C714        C  0.48367335  0.44058375  0.25763175     0.01700
H715        H  0.47561943  0.39579509  0.22021722     0.14700
H716        H  0.44893086  0.45017584  0.26736836     0.14700
C717        C  0.00079135  0.45147917  0.27434211     0.36400
C718        C  0.41878129  0.38421908  0.21684009     0.36300
N719        N  0.01687186  0.46508324  0.28650821    -0.44000
N720        N  0.40138011  0.36831885  0.20580822    -0.44000
C721        C  0.24357400  0.40732519  0.24456105    -0.00400
C722        C  0.24822957  0.43451103  0.23604775    -0.12300
C723        C  0.22506516  0.44238082  0.23639399     0.01800
C724        C  0.19744992  0.42316712  0.24578453    -0.00500
C725        C  0.19211390  0.39496218  0.25273764    -0.12200
C726        C  0.21448702  0.38670906  0.25200014     0.01700
H727        H  0.27020421  0.45005839  0.22980272     0.14700
H728        H  0.17016149  0.37920297  0.25900131     0.14700
C729        C  0.20672007  0.35675240  0.25898550     0.36400
C730        C  0.23042650  0.47039283  0.22767311     0.36300
N731        N  0.20041239  0.33278849  0.26460321    -0.44000
N732        N  0.23463912  0.49272461  0.22051586    -0.44000
C733        C  0.29307634  0.32110240  0.15217230    -0.00400
C734        C  0.27635798  0.33551914  0.15720356    -0.12300
C735        C  0.28740495  0.35898657  0.17044325     0.01800
C736        C  0.31622815  0.36913358  0.17889834    -0.00500
C737        C  0.33300062  0.35483059  0.17393887    -0.12200
C738        C  0.32163185  0.33082076  0.16098253     0.01700
H739        H  0.25437846  0.32849799  0.15075297     0.14700
H740        H  0.35480359  0.36183835  0.18061812     0.14700
C741        C  0.33985680  0.31666729  0.15724379     0.36400
C742        C  0.26872938  0.37246016  0.17478313     0.36300
N743        N  0.35444249  0.30524838  0.15439169    -0.44000
N744        N  0.25361352  0.38307900  0.17824710    -0.44000
C745        C  0.09845261  0.08294019  0.24444181    -0.00400
C746        C  0.11670713  0.07830811  0.23160914    -0.12300
C747        C  0.11864038  0.05154158  0.23190457     0.01800
C748        C  0.10208304  0.02860026  0.24520128    -0.00500
C749        C  0.08680390  0.03470765  0.25933810    -0.12200
C750        C  0.08459564  0.06144830  0.25900577     0.01700
H751        H  0.12829323  0.09497128  0.22069264     0.14700
H752        H  0.07422848  0.01731438  0.26969225     0.14700
C753        C  0.06536099  0.06441455  0.27265583     0.36400
C754        C  0.13677664  0.04745250  0.21794277     0.36300
N755        N  0.04980875  0.06636008  0.28369746    -0.44000
N756        N  0.15140709  0.04411248  0.20685697    -0.44000
C757        C  0.08146723  0.33773355  0.24099356    -0.00400
C758        C  0.09011525  0.32823573  0.22494336    -0.12300
C759        C  0.08502958  0.29819820  0.22355662     0.01800
C760        C  0.07229888  0.27793771  0.23873977    -0.00500
C761        C  0.05926937  0.28605826  0.25324456    -0.12200
C762        C  0.06326260  0.31545352  0.25432883     0.01700
H763        H  0.10293470  0.34478664  0.21419368     0.14700
H764        H  0.04783056  0.27008283  0.26451132     0.14700
C765        C  0.05006684  0.32269882  0.26993410     0.36400
C766        C  0.09440092  0.28945486  0.20689444     0.36300
N767        N  0.03946072  0.32845274  0.28242325    -0.44000
N768        N  0.10123959  0.28250833  0.19322444    -0.44000
C769        C  0.48906052  0.08427057  0.24087751    -0.00400
C770        C  0.47154912  0.07418570  0.22453659    -0.12300
C771        C  0.44414263  0.04613899  0.22364221     0.01800
C772        C  0.43319065  0.02687335  0.23941069    -0.00500
C773        C  0.44890511  0.03832213  0.25633822    -0.12200
C774        C  0.47652987  0.06687217  0.25720211     0.01700
H775        H  0.48015874  0.08770161  0.21197974     0.14700
H776        H  0.44055960  0.02429012  0.26869734     0.14700
C777        C  0.99101828  0.07990191  0.27402388     0.36400
C778        C  0.42827792  0.03753040  0.20604749     0.36300
N779        N  0.00256901  0.08809641  0.28837078    -0.44000
N780        N  0.41573682  0.03068205  0.19190983    -0.44000
C781        C  0.17912576  0.26043869  0.23930341    -0.00400
C782        C  0.19800740  0.25873805  0.25299820    -0.12300
C783        C  0.22941216  0.27991108  0.25354136     0.01800
C784        C  0.24233367  0.30394741  0.24045777    -0.00500
C785        C  0.22419190  0.30298789  0.22530423    -0.12200
C786        C  0.19275150  0.28143014  0.22463993     0.01700
H787        H  0.18785252  0.24176887  0.26392805     0.14700
H788        H  0.23377020  0.32086782  0.21487075     0.14700
C789        C  0.17473571  0.28347527  0.20979465     0.36400
C790        C  0.24745976  0.27734804  0.26823019     0.36300
N791        N  0.16072531  0.28545411  0.19773139    -0.44000
N792        N  0.26197635  0.27531751  0.27998048    -0.44000
C793        C  0.01233218  0.26379493  0.98288005    -0.00400
C794        C  0.49600976  0.27630709  0.99193627    -0.12300
C795        C  0.49032495  0.27330290  0.01105512     0.01800
C796        C  0.00306171  0.25890921  0.02177825    -0.00500
C797        C  0.02335155  0.25102708  0.01336323    -0.12200
C798        C  0.02759643  0.25273902  0.99408834     0.01700
H799        H  0.48663861  0.28754954  0.98356934     0.14700
H800        H  0.03571611  0.24313734  0.02193645     0.14700
C801        C  0.04568105  0.24072228  0.98615153     0.36400
C802        C  0.47323001  0.28628664  0.01921020     0.36300
N803        N  0.05971305  0.23048993  0.97987255    -0.44000
N804        N  0.45950860  0.29662467  0.02580601    -0.44000
C805        C  0.10202738  0.23695463  0.09680804    -0.00400
C806        C  0.12301636  0.25570443  0.11041406    -0.12300
C807        C  0.15330810  0.26157488  0.11018466     0.01800
C808        C  0.16269429  0.24875871  0.09596419    -0.00500
C809        C  0.14029841  0.22614798  0.08443390    -0.12200
C810        C  0.11001375  0.21989389  0.08494242     0.01700
H811        H  0.11677662  0.26830255  0.11995048     0.14700
H812        H  0.14694034  0.21504830  0.07403661     0.14700
C813        C  0.08783349  0.19716016  0.07247163     0.36400
C814        C  0.17486211  0.28349831  0.12325994     0.36300
N815        N  0.06983577  0.17880351  0.06264159    -0.44000
N816        N  0.19214258  0.30096839  0.13377561    -0.44000
C817        C  0.34888777  0.25828426  0.08797833    -0.00400
C818        C  0.34652218  0.23027706  0.09303572    -0.12300
C819        C  0.37217772  0.22683530  0.09415157     0.01800
C820        C  0.40136313  0.25157938  0.08968400    -0.00500
C821        C  0.40364455  0.27887078  0.08282386    -0.12200
C822        C  0.37754144  0.28244565  0.08203497     0.01700
H823        H  0.32443868  0.21122297  0.09717181     0.14700
H824        H  0.42592733  0.29783950  0.07902182     0.14700
C825        C  0.38096791  0.31126350  0.07601898     0.36400
C826        C  0.36783226  0.19776708  0.10060180     0.36300
N827        N  0.38385601  0.33440579  0.07107028    -0.44000
N828        N  0.36397938  0.17446855  0.10597782    -0.44000
C829        C  0.13170806  0.40684348  0.09449883    -0.00400
C830        C  0.10748859  0.39541165  0.08162141    -0.12300
C831        C  0.08593676  0.36408020  0.08066001     0.01800
C832        C  0.08764413  0.34347650  0.09316077    -0.00500
C833        C  0.10991874  0.35499545  0.10714927    -0.12200
C834        C  0.13219692  0.38628118  0.10777861     0.01700
H835        H  0.10664799  0.41068811  0.07135044     0.14700
H836        H  0.11143099  0.33914765  0.11667449     0.14700
C837        C  0.15709379  0.39560283  0.12080056     0.36400
C838        C  0.06307725  0.35348737  0.06616303     0.36300
N839        N  0.17710079  0.40277305  0.13115566    -0.44000
N840        N  0.04490860  0.34522624  0.05447691    -0.44000
C841        C  0.41169367  0.15214334  0.08748052    -0.00400
C842        C  0.39055030  0.14910925  0.07371773    -0.12300
C843        C  0.36066079  0.12348655  0.07335459     0.01800
C844        C  0.35177363  0.09996782  0.08670975    -0.00500
C845        C  0.37405878  0.10149208  0.09903094    -0.12200
C846        C  0.40366485  0.12712221  0.09952075     0.01700
H847        H  0.39616351  0.16826611  0.06454684     0.14700
H848        H  0.36775789  0.08330597  0.10909417     0.14700
C849        C  0.42485617  0.12789721  0.11327054     0.36400
C850        C  0.33878179  0.12392257  0.06064281     0.36300
N851        N  0.44170439  0.12826601  0.12430379    -0.44000
N852        N  0.32158210  0.12481119  0.05039184    -0.44000
C853        C  0.05251205  0.19491416  0.17819934    -0.00400
C854        C  0.02047929  0.18167659  0.17751823    -0.12300
C855        C  0.00650711  0.19349577  0.16583766     0.01800
C856        C  0.02475779  0.21918448  0.15439311    -0.00500
C857        C  0.05685331  0.23193287  0.15499362    -0.12200
C858        C  0.07065651  0.21999631  0.16654084     0.01700
H859        H  0.00630884  0.16259614  0.18659911     0.14700
H860        H  0.07149659  0.25113248  0.14612999     0.14700
C861        C  0.10350455  0.23322075  0.16557956     0.36400
C862        C  0.47191300  0.17200441  0.16417750     0.36300
N863        N  0.12979509  0.24375996  0.16459710    -0.44000
N864        N  0.44538821  0.15889391  0.16389800    -0.44000
C865        C  0.42988891  0.34174989  0.64898720    -0.00400
C866        C  0.43120716  0.36678014  0.65853458    -0.12300
C867        C  0.43599086  0.37026437  0.67773544     0.01800
C868        C  0.43961967  0.34833378  0.68783145    -0.00500
C869        C  0.43926944  0.32381800  0.67804195    -0.12200
C870        C  0.43458339  0.32048030  0.65884147     0.01700
H871        H  0.42847250  0.38379588  0.65088664     0.14700
H872        H  0.44250890  0.30692339  0.68542232     0.14700
C873        C  0.43642459  0.29618159  0.64941660     0.36400
C874        C  0.43629459  0.39607417  0.68663209     0.36300
N875        N  0.43817663  0.27695576  0.64174603    -0.44000
N876        N  0.43657872  0.41681419  0.69371942    -0.44000
C877        C  0.33871507  0.42913044  0.35300485    -0.00400
C878        C  0.36578655  0.43522291  0.34365082    -0.12300
C879        C  0.36794240  0.43702232  0.32424824     0.01800
C880        C  0.34254532  0.43262651  0.31362899    -0.00500
C881        C  0.31580113  0.42751088  0.32312514    -0.12200
C882        C  0.31376344  0.42583265  0.34252995     0.01700
H883        H  0.38541213  0.43822698  0.35156884     0.14700
H884        H  0.29610165  0.42462479  0.31536263     0.14700
C885        C  0.28646984  0.42220747  0.35136401     0.36400
C886        C  0.39618753  0.44259501  0.31574427     0.36300
N887        N  0.26476565  0.41962522  0.35850940    -0.44000
N888        N  0.41889670  0.44713404  0.30899180    -0.44000
C889        C  0.36074783  0.37787165  0.48528707    -0.00400
C890        C  0.39220499  0.39413018  0.48974347    -0.12300
C891        C  0.40460571  0.38335905  0.50309863     0.01800
C892        C  0.38535148  0.35624417  0.51298685    -0.00500
C893        C  0.35429186  0.33906233  0.50796861    -0.12200
C894        C  0.34190930  0.34939363  0.49419155     0.01700
H895        H  0.40749775  0.41535731  0.48263366     0.14700
H896        H  0.33944677  0.31775659  0.51507958     0.14700
C897        C  0.31008177  0.32982338  0.48928785     0.36400
C898        C  0.43745108  0.39984523  0.50572393     0.36300
N899        N  0.28463104  0.31394715  0.48528962    -0.44000
N900        N  0.46378178  0.41296857  0.50771559    -0.44000
C901        C  0.17572652  0.09596207  0.64720222    -0.00400
C902        C  0.20153285  0.09962789  0.65674935    -0.12300
C903        C  0.20195893  0.09871624  0.67613464     0.01800
C904        C  0.17615696  0.09432509  0.68653726    -0.00500
C905        C  0.15022936  0.09029899  0.67711905    -0.12200
C906        C  0.14968724  0.09115451  0.65773207     0.01700
H907        H  0.22134174  0.10268993  0.64905698     0.14700
H908        H  0.13047486  0.08706984  0.68495866     0.14700
C909        C  0.12176808  0.08692651  0.64936379     0.36400
C910        C  0.22891397  0.10117289  0.68486871     0.36300
N911        N  0.09920647  0.08338417  0.64288336    -0.44000
N912        N  0.25054971  0.10306811  0.69174253    -0.44000
C913        C  0.00675086  0.42322983  0.57376101    -0.00400
C914        C  0.01509032  0.44661586  0.56073473    -0.12300
C915        C  0.04534651  0.47077934  0.55977910     0.01800
C916        C  0.06779877  0.47095663  0.57164055    -0.00500
C917        C  0.05998045  0.44542625  0.58292146    -0.12200
C918        C  0.02959758  0.42168403  0.58416330     0.01700
H919        H  0.99742911  0.44777956  0.55277916     0.14700
H920        H  0.07714226  0.44530524  0.59194603     0.14700
C921        C  0.52223513  0.39945292  0.59776977     0.36400
C922        C  0.05130352  0.49699463  0.54869236     0.36300
N923        N  0.51584335  0.37918179  0.60777308    -0.44000
N924        N  0.05529013  0.51787317  0.53992675    -0.44000
C925        C  0.26978643  0.18840391  0.57794937    -0.00400
C926        C  0.27375774  0.21189845  0.56585626    -0.12300
C927        C  0.29999126  0.24109119  0.56675629     0.01800
C928        C  0.32335429  0.24745154  0.57982853    -0.00500
C929        C  0.31863325  0.22457279  0.59270659    -0.12200
C930        C  0.29218044  0.19524704  0.59189228     0.01700
H931        H  0.25667924  0.20715682  0.55524926     0.14700
H932        H  0.33673239  0.22876999  0.60245002     0.14700
C933        C  0.29012502  0.17190124  0.60438623     0.36400
C934        C  0.30300192  0.26396151  0.55357727     0.36300
N935        N  0.28870872  0.15323818  0.61435065    -0.44000
N936        N  0.30529220  0.28229634  0.54305196    -0.44000
C937        C  0.09041260  0.42239719  0.35434310    -0.00400
C938        C  0.08988240  0.44700246  0.34543899    -0.12300
C939        C  0.08555607  0.44701121  0.32626493     0.01800
C940        C  0.08175288  0.42194736  0.31554065    -0.00500
C941        C  0.08199514  0.39719504  0.32461014    -0.12200
C942        C  0.08614395  0.39719795  0.34377898     0.01700
H943        H  0.09246943  0.46623686  0.35361047     0.14700
H944        H  0.07870808  0.37744921  0.31672653     0.14700
C945        C  0.08363749  0.37018148  0.35235683     0.36400
C946        C  0.08527800  0.47304033  0.31811904     0.36300
N947        N  0.08111084  0.34822368  0.35911801    -0.44000
N948        N  0.08497631  0.49388930  0.31163283    -0.44000
C949        C  0.00398656  0.41841073  0.42456200    -0.00400
C950        C  0.48647789  0.40414489  0.40809368    -0.12300
C951        C  0.45550613  0.39549033  0.40756777     0.01800
C952        C  0.44251815  0.40318870  0.42243989    -0.00500
C953        C  0.45915455  0.41337039  0.43912040    -0.12200
C954        C  0.48985710  0.42025893  0.44002804     0.01700
H955        H  0.99736835  0.40216517  0.39632139     0.14700
H956        H  0.44891469  0.41777909  0.45107341     0.14700
C957        C  0.50548768  0.42900133  0.45762667     0.36400
C958        C  0.43763114  0.37921548  0.39149443     0.36300
N959        N  0.01627490  0.43302394  0.47284266    -0.44000
N960        N  0.42313447  0.36575308  0.37876761    -0.44000
C961        C  0.19478148  0.43582911  0.42425631    -0.00400
C962        C  0.21365292  0.44485638  0.44005093    -0.12300
C963        C  0.24012870  0.44260304  0.44079823     0.01800
C964        C  0.24868160  0.43116961  0.42538562    -0.00500
C965        C  0.23216369  0.42605948  0.40872738    -0.12200
C966        C  0.20554022  0.42860134  0.40800230     0.01700
H967        H  0.20654519  0.45180424  0.45244188     0.14700
H968        H  0.23896742  0.41836937  0.39654279     0.14700
C969        C  0.18927769  0.42260834  0.39066046     0.36400
C970        C  0.25725352  0.45111543  0.45795969     0.36300
N971        N  0.17670644  0.41843779  0.37660845    -0.44000
N972        N  0.27077300  0.45776765  0.47176945    -0.44000
C973        C  0.12722761  0.47881756  0.48821777    -0.00400
C974        C  0.11048238  0.49356875  0.49226553    -0.12300
C975        C  0.12764317  0.02350862  0.50244858     0.01800
C976        C  0.15231812  0.02847669  0.51402558    -0.00500
C977        C  0.16371487  0.00817421  0.51272599    -0.12200
C978        C  0.15086706  0.98322069  0.50030801     0.01700
H979        H  0.08830605  0.48549424  0.48591365     0.14700
H980        H  0.18213815  0.01124621  0.52186864     0.14700
C981        C  0.16305432  0.96269794  0.50040175     0.36400
C982        C  0.10501016  0.53508903  0.50539856     0.36300
N983        N  0.17282496  0.94625046  0.50060003    -0.44000
N984        N  0.09151620  0.54804854  0.50622517    -0.44000
C985        C  0.09431186  0.17641333  0.35123686    -0.00400
C986        C  0.11428861  0.20314829  0.34168735    -0.12300
C987        C  0.11507720  0.20366413  0.32226976     0.01800
C988        C  0.09513805  0.17676776  0.31184551    -0.00500
C989        C  0.07462130  0.15026353  0.32153292    -0.12200
C990        C  0.07396069  0.14985101  0.34094273     0.01700
H991        H  0.12991652  0.22355321  0.34943653     0.14700
H992        H  0.05884558  0.12974354  0.31394248     0.14700
C993        C  0.05131425  0.12194726  0.34986453     0.36400
C994        C  0.13687145  0.23240460  0.31373590     0.36300
N995        N  0.03305264  0.09953238  0.35689210    -0.44000
N996        N  0.15438033  0.25551661  0.30703188    -0.44000
C997        C  0.10777098  0.04250145  0.43026936    -0.00400
C998        C  0.12625998  0.06844200  0.41940184    -0.12300
C999        C  0.12033390  0.09272542  0.41837827     0.01800
C1000       C  0.09538811  0.09106146  0.42821782    -0.00500
C1001       C  0.07978966  0.06736467  0.44100946    -0.12200
C1002       C  0.08566165  0.04304557  0.44207644     0.01700
H1003       H  0.14379330  0.06866440  0.41060225     0.14700
H1004       H  0.06082949  0.06616544  0.44876680     0.14700
C1005       C  0.06577990  0.01733439  0.45359109     0.36400
C1006       C  0.13910022  0.11842396  0.40645610     0.36300
N1007       N  0.04950400  0.99701029  0.46292974    -0.44000
N1008       N  0.15417429  0.13917000  0.39701757    -0.44000
C1009       C  0.07833546  0.26270609  0.42015788    -0.00400
C1010       C  0.09460276  0.28391389  0.40607464    -0.12300
C1011       C  0.09834592  0.31354293  0.40634974     0.01800
C1012       C  0.08533226  0.32220132  0.42086434    -0.00500
C1013       C  0.06647980  0.29979164  0.43377834    -0.12200
C1014       C  0.06285909  0.27038311  0.43352514     0.01700
H1015       H  0.10691517  0.27842212  0.39587654     0.14700
H1016       H  0.05569378  0.30576087  0.44473595     0.14700
C1017       C  0.04448629  0.24896778  0.44781941     0.36400
C1018       C  0.11826622  0.33518572  0.39268901     0.36300
N1019       N  0.02975440  0.23184548  0.45927863    -0.44000
N1020       N  0.13441414  0.35189020  0.38150992    -0.44000
C1021       C  0.19007145  0.26554098  0.42208037    -0.00400
C1022       C  0.19797272  0.28585633  0.40699375    -0.12300
C1023       C  0.22677699  0.31292966  0.40618627     0.01800
C1024       C  0.24841149  0.31972739  0.42051694    -0.00500
C1025       C  0.24157814  0.29765337  0.43440994    -0.12200
C1026       C  0.21283410  0.27102051  0.43539920     0.01700
H1027       H  0.18084367  0.28182882  0.39656440     0.14700
H1028       H  0.25807967  0.30232870  0.44539087     0.14700
C1029       C  0.20695425  0.25034532  0.45072664     0.36400
C1030       C  0.23226140  0.33465747  0.39158742     0.36300
N1031       N  0.20210728  0.23383572  0.46304790    -0.44000
N1032       N  0.23663468  0.35209162  0.37989397    -0.44000
C1033       C  0.47531383  0.06716602  0.42231276    -0.00400
C1034       C  0.45389291  0.05791430  0.40789154    -0.12300
C1035       C  0.42971835  0.02780373  0.40678301     0.01800
C1036       C  0.42671689  0.00623811  0.42033454    -0.00500
C1037       C  0.44611054  0.01621358  0.43584224    -0.12200
C1038       C  0.47054768  0.04649648  0.43689488     0.01700
H1039       H  0.45718483  0.07383475  0.39680768     0.14700
H1040       H  0.44703292  0.49748887  0.45060084     0.14700
C1041       C  0.99043700  0.05395109  0.45144665     0.36400
C1042       C  0.40901797  0.01952137  0.39120120     0.36300
N1043       N  0.00752233  0.05995088  0.46359041    -0.44000
N1044       N  0.39263387  0.01333816  0.37865653    -0.44000
C1045       C  0.42283654  0.09073932  0.65036677    -0.00400
C1046       C  0.44406752  0.08440683  0.65915331    -0.12300
C1047       C  0.44498990  0.08200355  0.67848196     0.01800
C1048       C  0.42386043  0.08536553  0.68959067    -0.00500
C1049       C  0.40286742  0.09211392  0.68068094    -0.12200
C1050       C  0.40234593  0.09500419  0.66137912     0.01700
H1051       H  0.46029482  0.08144837  0.65081779     0.14700
H1052       H  0.38651377  0.09516768  0.68879545     0.14700
C1053       C  0.37964824  0.10092318  0.65325526     0.36400
C1054       C  0.46830992  0.07677275  0.68631803     0.36300
N1055       N  0.36132652  0.10554001  0.64680247    -0.44000
N1056       N  0.48737274  0.07288736  0.69233634    -0.44000
C1057       C  0.43692213  0.25268125  0.58185581    -0.00400
C1058       C  0.42440070  0.23256566  0.59698659    -0.12300
C1059       C  0.42749944  0.20639177  0.59843742     0.01800
C1060       C  0.44355100  0.20023950  0.58458449    -0.00500
C1061       C  0.45972089  0.22284768  0.57112172    -0.12200
C1062       C  0.45628856  0.24861703  0.56951991     0.01700
H1063       H  0.40998769  0.23580328  0.60679857     0.14700
H1064       H  0.47277705  0.21887722  0.56065559     0.14700
C1065       C  0.47167446  0.26970249  0.55447196     0.36400
C1066       C  0.41116388  0.18475750  0.61305324     0.36300
N1067       N  0.48389156  0.28654426  0.54237529    -0.44000
N1068       N  0.39805482  0.16761868  0.62486457    -0.44000
C1069       C  0.42175518  0.00793034  0.57646958    -0.00400
C1070       C  0.42877190  0.49542942  0.56187944    -0.12300
C1071       C  0.42182253  0.46473575  0.56121577     0.01800
C1072       C  0.40729240  0.44507749  0.57646514    -0.00500
C1073       C  0.39733603  0.45602858  0.59123823    -0.12200
C1074       C  0.39997578  0.98634765  0.58885181     0.01700
H1075       H  0.44186806  0.51093024  0.55073475     0.14700
H1076       H  0.38576535  0.44114136  0.60293170     0.14700
C1077       C  0.38605146  0.99544909  0.60311190     0.36400
C1078       C  0.43323202  0.45541079  0.54574648     0.36300
N1079       N  0.37483158  0.00262919  0.61455239    -0.44000
N1080       N  0.44279954  0.44853556  0.53324814    -0.44000
C1081       C  0.33149852  0.10002288  0.58159661    -0.00400
C1082       C  0.30611695  0.07137892  0.58634742    -0.12300
C1083       C  0.27603611  0.06658698  0.58542945     0.01800
C1084       C  0.27151995  0.09088908  0.58005405    -0.00500
C1085       C  0.29707230  0.11977619  0.57650571    -0.12200
C1086       C  0.32670697  0.12454743  0.57719188     0.01700
H1087       H  0.30961162  0.05234588  0.58957658     0.14700
H1088       H  0.29373310  0.13856781  0.57227819     0.14700
C1089       C  0.35168205  0.15466139  0.57245926     0.36400
C1090       C  0.25029365  0.03631701  0.58852097     0.36300
N1091       N  0.37133734  0.17881952  0.56845716    -0.44000
N1092       N  0.22957392  0.01199600  0.59086851    -0.44000
C1093       C  0.04279502  0.10555895  0.57488503    -0.00400
C1094       C  0.06700150  0.11988510  0.58755817    -0.12300
C1095       C  0.09089731  0.11353046  0.58746515     0.01800
C1096       C  0.09052690  0.09223416  0.57463269    -0.00500
C1097       C  0.06852652  0.08093244  0.56047958    -0.12200
C1098       C  0.04461069  0.08749014  0.56047087     0.01700
H1099       H  0.06612770  0.13439394  0.59836406     0.14700
H1100       H  0.06839698  0.06479454  0.55048414     0.14700
C1101       C  0.02066299  0.07273123  0.54676137     0.36400
C1102       C  0.11467456  0.12786360  0.60132110     0.36300
N1103       N  0.00157149  0.06102278  0.53571183    -0.44000
N1104       N  0.13373268  0.13954108  0.61239218    -0.44000
C1105       C  0.48398824  0.13306528  0.51501484    -0.00400
C1106       C  0.50448788  0.16462027  0.51282181    -0.12300
C1107       C  0.02913265  0.17445872  0.49900532     0.01800
C1108       C  0.02820208  0.15397883  0.48520216    -0.00500
C1109       C  0.00414822  0.12321778  0.48594013    -0.12200
C1110       C  0.48581805  0.11249159  0.50255704     0.01700
H1111       H  0.50365441  0.18064869  0.52250597     0.14700
H1112       H  0.00210452  0.10734191  0.47519227     0.14700
C1113       C  0.46512898  0.07982917  0.50386748     0.36400
C1114       C  0.05261517  0.20641210  0.49928269     0.36300
N1115       N  0.44862802  0.05364319  0.50496169    -0.44000
N1116       N  0.07136085  0.23206199  0.49947865    -0.44000
O1117       O  0.42700721  0.57296786  0.61929512    -0.81100
O1118       O  0.45619895  0.59593223  0.53887683    -0.65800
O1119       O  0.45467232  0.61039140  0.59032984    -1.12400
C1120       C  0.35781130  0.59860678  0.57521544     1.05800
O1121       O  0.44540981  0.63241558  0.53294313    -0.79000
O1122       O  0.42509281  0.65642570  0.55894234    -0.66600
Ni1123     Ni  0.46581110  0.58962633  0.60777901     1.34900
C1124       C  0.43014034  0.66481711  0.57576485     0.84500
O1125       O  0.49586814  0.60603683  0.56594610    -0.79600
O1126       O  0.00421443  0.60163788  0.59815745    -0.89800
C1127       C  0.45954551  0.61810409  0.52894670     0.84100
O1128       O  0.45015433  0.55114906  0.59579752    -0.68000
O1129       O  0.36889021  0.60597070  0.55881537    -0.87300
C1130       C  0.43711424  0.54065699  0.58037943     0.84900
C1131       C  0.01303925  0.60542617  0.58129741     1.06500
H1132       H  0.40105540  0.57510308  0.56239409     0.38300
O1133       O  0.41573251  0.59644381  0.56469633    -1.10000
O1134       O  0.42764332  0.64683969  0.58899520    -0.66600
Ni1135     Ni  0.41333165  0.60308556  0.59057699     1.26300
O1136       O  0.43691448  0.55760047  0.56740733    -0.66900
O1137       O  0.37187214  0.59529702  0.58903449    -0.79200
C1138       C  0.41926052  0.59023081  0.62726483     0.84300
O1139       O  0.41281401  0.60723035  0.61737893    -0.66300
Ni1140     Ni  0.40725723  0.61813751  0.54659706     1.27400
Ni1141     Ni  0.45574791  0.60157358  0.56487194     1.26100
H1142       H  0.46859290  0.63206848  0.59209205     0.38800
O1143       O  0.08875335  0.64944966  0.38366220    -0.81100
O1144       O  0.05985429  0.64655193  0.46543562    -0.65800
O1145       O  0.06007860  0.65751656  0.41344295    -1.12400
C1146       C  0.15827180  0.74328605  0.42688708     1.05800
O1147       O  0.07246089  0.69448691  0.47057449    -0.79000
O1148       O  0.09455775  0.73837177  0.44393133    -0.66600
Ni1149     Ni  0.05180393  0.62488920  0.39696174     1.34900
C1150       C  0.08517820  0.73844897  0.42761161     0.84500
O1151       O  0.01921590  0.61451108  0.43918093    -0.79600
O1152       O  0.01450382  0.59805366  0.40966140    -0.89800
C1153       C  0.05721493  0.66614514  0.47496085     0.84100
O1154       O  0.07309045  0.60824587  0.40957284    -0.68000
O1155       O  0.14921669  0.73975545  0.44377826    -0.87300
C1156       C  0.08197025  0.60947861  0.42609800     0.84900
C1157       C  0.00458591  0.59550062  0.42620818     1.06500
H1158       H  0.11425396  0.67794435  0.44041877     0.38300
O1159       O  0.09970636  0.68484769  0.43854802    -1.10000
O1160       O  0.08430051  0.72057698  0.41475293    -0.66600
Ni1161     Ni  0.10042971  0.69284900  0.41259004     1.26300
O1162       O  0.07745596  0.62414463  0.43879860    -0.66900
O1163       O  0.14135580  0.72763028  0.41324423    -0.79200
C1164       C  0.09366737  0.67369970  0.37566546     0.84300
O1165       O  0.09894526  0.69669138  0.38575092    -0.66300
Ni1166     Ni  0.11052315  0.71612428  0.45640991     1.27400
Ni1167     Ni  0.05953203  0.65011457  0.43936029     1.26100
H1168       H  0.04523389  0.66381318  0.41094786     0.38800
O1169       O  0.07262334  0.93144686  0.38260217    -0.81100
O1170       O  0.09096008  0.95155800  0.46399339    -0.65800
O1171       O  0.10793945  0.95457635  0.41277355    -1.12400
C1172       C  0.08940900  0.85344219  0.42517441     1.05800
O1173       O  0.12629235  0.93902730  0.46933505    -0.79000
O1174       O  0.14878562  0.91693705  0.44312282    -0.66600
Ni1175     Ni  0.09009632  0.96916835  0.39554016     1.34900
C1176       C  0.15923080  0.92584730  0.42689002     0.84500
O1177       O  0.10297276  0.49332451  0.43885251    -0.79600
O1178       O  0.10122543  0.50429943  0.40880239    -0.89800
C1179       C  0.11322472  0.95430358  0.47367571     0.84100
O1180       O  0.05119637  0.95422716  0.40680267    -0.68000
O1181       O  0.09504444  0.86271288  0.44204206    -0.87300
C1182       C  0.03857901  0.93858152  0.42120721     0.84900
C1183       C  0.10400385  0.51124053  0.42597739     1.06500
H1184       H  0.06961780  0.89872452  0.43835100     0.38300
O1185       O  0.09125781  0.91302504  0.43686766    -1.10000
O1186       O  0.14289535  0.92655651  0.41358673    -0.66600
Ni1187     Ni  0.09951368  0.91276798  0.41111426     1.26300
O1188       O  0.05375996  0.93574774  0.43438557    -0.66900
O1189       O  0.09079237  0.87047796  0.41146415    -0.79200
C1190       C  0.08959469  0.92336754  0.37454985     0.84300
O1191       O  0.10512861  0.91483683  0.38435636    -0.66300
Ni1192     Ni  0.11010656  0.90115441  0.45497305     1.27400
Ni1193     Ni  0.09754560  0.95353016  0.43807351     1.26100
H1194       H  0.12982970  0.96808778  0.41181558     0.38800
O1195       O  0.14913970  0.58300617  0.61814100    -0.81100
O1196       O  0.14288327  0.55805794  0.53665843    -0.65800
O1197       O  0.15785581  0.55697861  0.58794348    -1.12400
C1198       C  0.24034942  0.65742555  0.57376842     1.05800
O1199       O  0.19060431  0.57009312  0.53128727    -0.79000
O1200       O  0.23746005  0.59671036  0.55649975    -0.66600
Ni1201     Ni  0.12617858  0.54520087  0.60553662     1.34900
C1202       C  0.23979643  0.58864373  0.57279884     0.84500
O1203       O  0.11268438  0.51678920  0.56282299    -0.79600
O1204       O  0.10100822  0.50713422  0.59311286    -0.89800
C1205       C  0.16211464  0.55480040  0.52711945     0.84100
O1206       O  0.10478401  0.56296884  0.59446715    -0.68000
O1207       O  0.23501897  0.64854735  0.55677440    -0.87300
C1208       C  0.10684397  0.57596739  0.57913039     0.84900
C1209       C  0.09604515  0.49978434  0.57601978     1.06500
H1210       H  0.17495863  0.61181486  0.56190510     0.38300
O1211       O  0.18230762  0.59752067  0.56321653    -1.10000
O1212       O  0.22085807  0.58405683  0.58576240    -0.66600
Ni1213     Ni  0.19194232  0.59833113  0.58873193     1.26300
O1214       O  0.12247687  0.57512679  0.56560616    -0.66900
O1215       O  0.22591493  0.64015639  0.58764777    -0.79200
C1216       C  0.17441072  0.59030327  0.62568077     0.84300
O1217       O  0.19737436  0.59703232  0.61529042    -0.66300
Ni1218     Ni  0.21199251  0.60916697  0.54457873     1.27400
Ni1219     Ni  0.14811990  0.55714104  0.56256545     1.26100
H1220       H  0.16556114  0.54298220  0.58931188     0.38800
O1221       O  0.36069396  0.94401024  0.37880473    -0.81100
O1222       O  0.37084606  0.91652229  0.45777975    -0.65800
O1223       O  0.35125803  0.90507922  0.40664532    -1.12400
C1224       C  0.27240479  0.92544107  0.42531976     1.05800
O1225       O  0.32280345  0.88441126  0.46522838    -0.79000
O1226       O  0.27666839  0.86357236  0.44035648    -0.66600
Ni1227     Ni  0.38244874  0.92566984  0.38874014     1.34900
C1228       C  0.27254329  0.85469269  0.42362573     0.84500
O1229       O  0.39644682  0.90460481  0.42933184    -0.79600
O1230       O  0.40655622  0.90938825  0.39878508    -0.89800
C1231       C  0.35141599  0.89580534  0.46829316     0.84100
O1232       O  0.40698731  0.96344357  0.40096826    -0.68000
O1233       O  0.27666147  0.91739030  0.44139242    -0.87300
C1234       C  0.40670126  0.97313948  0.41705707     0.84900
C1235       C  0.41204077  0.90463576  0.41537865     1.06500
H1236       H  0.33878008  0.94254305  0.43583834     0.38300
O1237       O  0.33016207  0.92087262  0.43353940    -1.10000
O1238       O  0.28794357  0.87177984  0.41006311    -0.66600
Ni1239     Ni  0.31888038  0.91486219  0.40789528     1.26300
O1240       O  0.39058919  0.95577433  0.43015606    -0.66900
O1241       O  0.28701368  0.92534624  0.41077967    -0.79200
C1242       C  0.33526236  0.92778126  0.37095374     0.84300
O1243       O  0.31213017  0.91097860  0.38115443    -0.66300
Ni1244     Ni  0.30083366  0.90167811  0.45245125     1.27400
Ni1245     Ni  0.36283694  0.91220644  0.43195209     1.26100
H1246       H  0.34226680  0.88336615  0.40434192     0.38800
O1247       O  0.43860608  0.86388334  0.62057533    -0.81100
O1248       O  0.41733188  0.87126382  0.53879300    -0.65800
O1249       O  0.40284792  0.85477933  0.59038723    -1.12400
C1250       C  0.42211885  0.77375092  0.57480989     1.05800
O1251       O  0.38325576  0.82300891  0.53253001    -0.79000
O1252       O  0.36120071  0.77680557  0.55783154    -0.66600
Ni1253     Ni  0.42374533  0.88676564  0.60803604     1.34900
C1254       C  0.35122308  0.77404369  0.57426988     0.84500
O1255       O  0.40610041  0.90017403  0.56581642    -0.79600
O1256       O  0.41111344  0.91248176  0.59608655    -0.89800
C1257       C  0.39671793  0.85145399  0.52831728     0.84100
O1258       O  0.46277949  0.90772351  0.59659703    -0.68000
O1259       O  0.41549296  0.77756480  0.55821730    -0.87300
C1260       C  0.47264510  0.90671530  0.58066582     0.84900
C1261       C  0.40737173  0.91734628  0.57920593     1.06500
H1262       H  0.44016893  0.83892501  0.56311508     0.38300
O1263       O  0.41851153  0.83113793  0.56481948    -1.10000
O1264       O  0.36752272  0.79080249  0.58775114    -0.66600
Ni1265     Ni  0.41087878  0.82108401  0.59050016     1.26300
O1266       O  0.45529683  0.89149059  0.56729515    -0.66900
O1267       O  0.42032355  0.78833705  0.58891080    -0.79200
C1268       C  0.42091424  0.83823324  0.62775891     0.84300
O1269       O  0.40514750  0.81519642  0.61722098    -0.66300
Ni1270     Ni  0.39984070  0.80113382  0.54617704     1.27400
Ni1271     Ni  0.41162770  0.86503035  0.56483258     1.26100
H1272       H  0.38116429  0.84669069  0.59218864     0.38800
O1273       O  0.02777187  0.77857025  0.05066806    -0.81100
O1274       O  0.02867646  0.75033666  0.13085301    -0.65800
O1275       O  0.01498340  0.73924209  0.07915173    -1.12400
C1276       C  0.42878177  0.75033355  0.09304150     1.05800
O1277       O  0.48240558  0.71690152  0.13675079    -0.79000
O1278       O  0.44007425  0.69261024  0.10934034    -0.66600
Ni1279     Ni  0.04820393  0.76036886  0.06245706     1.34900
C1280       C  0.43733346  0.68555014  0.09230076     0.84500
O1281       O  0.05875319  0.74077385  0.10416021    -0.79600
O1282       O  0.07041208  0.74328873  0.07393176    -0.89800
C1283       C  0.01004509  0.72726994  0.14025002     0.84100
O1284       O  0.07122503  0.79817538  0.07537362    -0.68000
O1285       O  0.43161071  0.74169085  0.10932157    -0.87300
C1286       C  0.06762900  0.80804520  0.09075536     0.84900
C1287       C  0.07421700  0.73870901  0.09085444     1.06500
H1288       H  0.99535901  0.77257429  0.10825164     0.38300
O1289       O  0.48968912  0.75393589  0.10485992    -1.10000
O1290       O  0.45262882  0.70469189  0.07950346    -0.66600
Ni1291     Ni  0.48196475  0.74852330  0.07873522     1.26300
O1292       O  0.04948294  0.79050227  0.10322844    -0.66900
O1293       O  0.44775143  0.75572785  0.07978059    -0.79200
C1294       C  0.00272735  0.76201793  0.04248697     0.84300
O1295       O  0.47878865  0.74532201  0.05187624    -0.66300
Ni1296     Ni  0.45838058  0.73052592  0.12223890     1.27400
Ni1297     Ni  0.02368034  0.74626075  0.10485245     1.26100
H1298       H  0.00668870  0.71760381  0.07693171     0.38800
O1299       O  0.11040793  0.70107551  0.28632646    -0.81100
O1300       O  0.08543994  0.70205762  0.20423697    -0.65800
O1301       O  0.07357124  0.69064702  0.25625793    -1.12400
C1302       C  0.09136171  0.60779566  0.24408152     1.05800
O1303       O  0.05145437  0.65330012  0.19952598    -0.79000
O1304       O  0.03152973  0.60948967  0.22609083    -0.66600
Ni1305     Ni  0.09576637  0.72365019  0.27287471     1.34900
C1306       C  0.02054152  0.60906289  0.24198029     0.84500
O1307       O  0.07433951  0.73274105  0.23021256    -0.79600
O1308       O  0.08258205  0.74820445  0.25999381    -0.89800
C1309       C  0.06345040  0.68152371  0.19490137     0.84100
O1310       O  0.13433219  0.74307662  0.26074839    -0.68000
O1311       O  0.08651222  0.61132389  0.22699538    -0.87300
C1312       C  0.14341041  0.74146265  0.24467211     0.84900
C1313       C  0.07564991  0.75046444  0.24326051     1.06500
H1314       H  0.11001736  0.67253209  0.23021438     0.38300
O1315       O  0.08831656  0.66474197  0.23173935    -1.10000
O1316       O  0.03648052  0.62727361  0.25508398    -0.66600
Ni1317     Ni  0.08037925  0.65647752  0.25763948     1.26300
O1318       O  0.12516936  0.72570871  0.23172331    -0.66900
O1319       O  0.08843994  0.62283846  0.25748996    -0.79200
C1320       C  0.09226429  0.67636732  0.29442591     0.84300
O1321       O  0.07496677  0.65293186  0.28446980    -0.66300
Ni1322     Ni  0.06968573  0.63328132  0.21391963     1.27400
Ni1323     Ni  0.08120137  0.69843319  0.23042034     1.26100
H1324       H  0.05207007  0.68330964  0.25833757     0.38800
O1325       O  0.31431481  0.92056127  0.28216920    -0.81100
O1326       O  0.30729667  0.89020243  0.20355712    -0.65800
O1327       O  0.32778861  0.89497310  0.25415487    -1.12400
C1328       C  0.40780949  0.99419771  0.23770251     1.05800
O1329       O  0.35509170  0.90423798  0.19610766    -0.79000
O1330       O  0.39904513  0.92380832  0.22233672    -0.66600
Ni1331     Ni  0.29675369  0.88050499  0.27222098     1.34900
C1332       C  0.40443969  0.92196955  0.23930361     0.84500
O1333       O  0.28160602  0.85037560  0.23136447    -0.79600
O1334       O  0.27753281  0.84013466  0.26187215    -0.89800
C1335       C  0.32634396  0.88879314  0.19280115     0.84100
O1336       O  0.26756917  0.88763776  0.26011181    -0.68000
O1337       O  0.40552219  0.98097417  0.22210833    -0.87300
C1338       C  0.26754277  0.90058449  0.24510704     0.84900
C1339       C  0.26898612  0.83225247  0.24511724     1.06500
H1340       H  0.34058059  0.94658036  0.22527286     0.38300
O1341       O  0.34870950  0.93327860  0.22798382    -1.10000
O1342       O  0.39086884  0.92727088  0.25247555    -0.66600
Ni1343     Ni  0.35878819  0.93779126  0.25377522     1.26300
O1344       O  0.28788854  0.90764309  0.23271731    -0.66900
O1345       O  0.39011970  0.98058266  0.25152948    -0.79200
C1346       C  0.33976967  0.93141776  0.29031177     0.84300
O1347       O  0.36378796  0.93994972  0.28051928    -0.66300
Ni1348     Ni  0.37914203  0.94221172  0.20997321     1.27400
Ni1349     Ni  0.31563261  0.89198482  0.22919450     1.26100
H1350       H  0.33782602  0.88293985  0.25549649     0.38800
O1351       O  0.22794113  0.75249105  0.04521530    -0.81100
O1352       O  0.25670664  0.79418073  0.12534967    -0.65800
O1353       O  0.26340516  0.78732257  0.07359365    -1.12400
C1354       C  0.25038367  0.69024827  0.09097117     1.05800
O1355       O  0.28977526  0.77880037  0.13119313    -0.79000
O1356       O  0.30648868  0.74820168  0.10688460    -0.66600
Ni1357     Ni  0.23347971  0.78786705  0.05781842     1.34900
C1358       C  0.31834726  0.75824843  0.09110139     0.84500
O1359       O  0.26253028  0.83081660  0.09690621    -0.79600
O1360       O  0.23643047  0.82292502  0.07016887    -0.89800
C1361       C  0.27841189  0.79578919  0.13501290     0.84100
O1362       O  0.19819134  0.76065089  0.07155501    -0.68000
O1363       O  0.25080293  0.69875731  0.10780761    -0.87300
C1364       C  0.19294635  0.76009082  0.08869324     0.84900
C1365       C  0.24835854  0.83800952  0.08503987     1.06500
H1366       H  0.23034650  0.73634539  0.10122702     0.38300
O1367       O  0.25206561  0.75047636  0.10001796    -1.10000
O1368       O  0.30529513  0.76577698  0.07856636    -0.66600
Ni1369     Ni  0.26115825  0.74822748  0.07472279     1.26300
O1370       O  0.21433720  0.77358190  0.10041842    -0.66900
O1371       O  0.25632585  0.70795651  0.07694938    -0.79200
C1372       C  0.25033778  0.75212460  0.03783782     0.84300
O1373       O  0.26880859  0.74895897  0.04840407    -0.66300
Ni1374     Ni  0.26955124  0.73890290  0.11902258     1.27400
Ni1375     Ni  0.25826354  0.79094975  0.09932350     1.26100
H1376       H  0.28369285  0.80305048  0.06978707     0.38800
O1377       O  0.23988438  0.98272555  0.04801769    -0.81100
O1378       O  0.21950365  0.97943813  0.12881626    -0.65800
O1379       O  0.21706348  0.99626694  0.07797410    -1.12400
C1380       C  0.31994440  0.57865032  0.09054137     1.05800
O1381       O  0.23524920  0.53157677  0.13552835    -0.79000
O1382       O  0.25442443  0.57408564  0.10844797    -0.66600
Ni1383     Ni  0.20158124  0.96419357  0.06043046     1.34900
C1384       C  0.24752779  0.57611586  0.09180599     0.84500
O1385       O  0.17648962  0.95058418  0.10287532    -0.79600
O1386       O  0.16287073  0.94341775  0.07284157    -0.89800
C1387       C  0.21908887  0.99924885  0.13937851     0.84100
O1388       O  0.21270325  0.93737982  0.07195470    -0.68000
O1389       O  0.31012694  0.57718747  0.10711462    -0.87300
C1390       C  0.22685866  0.93866500  0.08672312     0.84900
C1391       C  0.15759684  0.93543183  0.08985901     1.06500
H1392       H  0.27379130  0.51381388  0.10514852     0.38300
O1393       O  0.25997850  0.52157349  0.10307717    -1.10000
O1394       O  0.24918170  0.56021940  0.07852896    -0.66600
Ni1395     Ni  0.26110002  0.52905966  0.07709017     1.26300
O1396       O  0.23373150  0.95898259  0.09902868    -0.66900
O1397       O  0.30355082  0.56118800  0.07726940    -0.79200
C1398       C  0.25287739  0.50712406  0.04085380     0.84300
O1399       O  0.26038966  0.53140949  0.05025411    -0.66300
Ni1400     Ni  0.27216456  0.55333605  0.12053898     1.27400
Ni1401     Ni  0.21763141  0.98584412  0.10308927     1.26100
H1402       H  0.20625996  0.50651941  0.07742175     0.38800
O1403       O  0.08270345  0.90285246  0.28610728    -0.81100
O1404       O  0.12293132  0.93027668  0.20680414    -0.65800
O1405       O  0.11648867  0.93942718  0.25846280    -1.12400
C1406       C  0.02019274  0.92874530  0.24074737     1.05800
O1407       O  0.10989348  0.96505140  0.20069543    -0.79000
O1408       O  0.08468497  0.98629080  0.22549576    -0.66600
Ni1409     Ni  0.12109643  0.91358234  0.27557532     1.34900
C1410       C  0.09394544  0.99637978  0.24174159     0.84500
O1411       O  0.15959483  0.93673032  0.23516541    -0.79600
O1412       O  0.15906035  0.92180865  0.26476123    -0.89800
C1413       C  0.12564334  0.95228965  0.19694574     0.84100
O1414       O  0.10020641  0.87612980  0.26266230    -0.68000
O1415       O  0.03037992  0.93264475  0.22410674    -0.87300
C1416       C  0.09398630  0.86899468  0.24581858     0.84900
C1417       C  0.17074396  0.92878533  0.24854579     1.06500
H1418       H  0.06515527  0.90654843  0.23002393     0.38300
O1419       O  0.07969327  0.92803580  0.23190402    -1.10000
O1420       O  0.09449689  0.97980185  0.25493814    -0.64800
Ni1421     Ni  0.07661979  0.93580940  0.25751577     1.26300
O1422       O  0.10111327  0.88880674  0.23306968    -0.66900
O1423       O  0.03618856  0.93090617  0.25510895    -0.79200
C1424       C  0.07979740  0.92325761  0.29425333     0.84300
O1425       O  0.07603871  0.94184322  0.28415880    -0.66300
Ni1426     Ni  0.07039115  0.94815260  0.21314635     1.27400
Ni1427     Ni  0.11983697  0.93305381  0.23286324     1.26100
H1428       H  0.13165598  0.96036065  0.26146169     0.38800
O1429       O  0.43182385  0.82247964  0.71543466    -0.81100
O1430       O  0.39778955  0.80849555  0.79483674    -0.65800
O1431       O  0.40137198  0.82795873  0.74391939    -1.12400
C1432       C  0.49972747  0.91056517  0.76136938     1.05800
O1433       O  0.41090289  0.85572365  0.80271603    -0.79000
O1434       O  0.43432124  0.90331216  0.77830100    -0.66600
Ni1435     Ni  0.39255116  0.79747195  0.72572752     1.34900
C1436       C  0.42711719  0.90661188  0.76194734     0.84500
O1437       O  0.35908264  0.78088240  0.76687922    -0.79600
O1438       O  0.35313121  0.77073173  0.73622141    -0.89800
C1439       C  0.39544769  0.82684735  0.80573772     0.84100
O1440       O  0.40948165  0.77559610  0.73720615    -0.68000
O1441       O  0.48886057  0.90502948  0.77787716    -0.87300
C1442       C  0.42049520  0.77664315  0.75309335     0.84900
C1443       C  0.34358908  0.76500213  0.75293136     1.06500
H1444       H  0.45406977  0.84380538  0.77159135     0.38300
O1445       O  0.43971579  0.85103376  0.77006907    -1.10000
O1446       O  0.42761662  0.89107914  0.74808798    -0.66600
Ni1447     Ni  0.44248718  0.86257483  0.74460318     1.26300
O1448       O  0.41793368  0.79143675  0.76648278    -0.66900
O1449       O  0.48402598  0.89642252  0.74694110    -0.79200
C1450       C  0.43677375  0.84675888  0.70758522     0.84300
O1451       O  0.44268003  0.86962552  0.71794290    -0.66300
Ni1452     Ni  0.44960917  0.87952111  0.78945815     1.27400
Ni1453     Ni  0.39931165  0.81645854  0.76908962     1.26100
H1454       H  0.38716749  0.83529963  0.74209483     0.38800
O1455       O  0.26225902  0.74156019  0.95179075    -0.81100
O1456       O  0.29280667  0.75775185  0.87035299    -0.65800
O1457       O  0.29150240  0.77455271  0.92134096    -1.12400
C1458       C  0.19347528  0.76056470  0.90442866     1.05800
O1459       O  0.28253227  0.79429436  0.86360090    -0.79000
O1460       O  0.25697364  0.81738128  0.88716423    -0.66600
Ni1461     Ni  0.29943561  0.75222804  0.93958011     1.34900
C1462       C  0.26597294  0.82890658  0.90312678     0.84500
O1463       O  0.33222776  0.76789435  0.89756438    -0.79600
O1464       O  0.33700085  0.76097889  0.92794603    -0.89800
C1465       C  0.29757703  0.78048630  0.86056116     0.84100
O1466       O  0.27834117  0.71271556  0.92867794    -0.68000
O1467       O  0.20341429  0.76415345  0.88768625    -0.87300
C1468       C  0.26881935  0.70295920  0.91249407     0.84900
C1469       C  0.34678773  0.76540690  0.91130696     1.06500
H1470       H  0.23776096  0.73824769  0.89440328     0.38300
O1471       O  0.25264361  0.75981029  0.89557326    -1.10000
O1472       O  0.26766608  0.81367833  0.91680111    -0.66600
Ni1473     Ni  0.25113607  0.76993379  0.92076882     1.26300
O1474       O  0.27322180  0.72056040  0.89885441    -0.66900
O1475       O  0.21010502  0.76367844  0.91868166    -0.79200
C1476       C  0.25712948  0.76179410  0.95816263     0.84300
O1477       O  0.25176102  0.77815081  0.94702293    -0.66300
Ni1478     Ni  0.24298561  0.77846041  0.87617342     1.27400
Ni1479     Ni  0.29245505  0.76435903  0.89609403     1.26100
H1480       H  0.30647059  0.79597390  0.92299602     0.38800
O1481       O  0.19913362  0.60885407  0.71335270    -0.81100
O1482       O  0.20957049  0.58743151  0.79402198    -0.65800
O1483       O  0.19148592  0.57307736  0.74291918    -1.12400
C1484       C  0.10965868  0.59096656  0.75839961     1.05800
O1485       O  0.16152870  0.55701842  0.80204623    -0.79000
O1486       O  0.11603606  0.53419324  0.77677695    -0.66600
Ni1487     Ni  0.22259581  0.59376884  0.72501003     1.34900
C1488       C  0.11350680  0.52221393  0.76091903     0.84500
O1489       O  0.23493591  0.57276066  0.76665529    -0.79600
O1490       O  0.24787945  0.58012034  0.73641415    -0.89800
C1491       C  0.19011101  0.56781075  0.80496825     0.84100
O1492       O  0.24502458  0.63263609  0.73657456    -0.68000
O1493       O  0.11548508  0.58781349  0.77529268    -0.87300
C1494       C  0.24614845  0.64201944  0.75295418     0.84900
C1495       C  0.25160143  0.57385918  0.75302675     1.06500
H1496       H  0.17814016  0.61222471  0.76980171     0.38300
O1497       O  0.16940056  0.59030986  0.76862333    -1.10000
O1498       O  0.12935232  0.53735327  0.74693052    -0.66600
Ni1499     Ni  0.15785621  0.58074743  0.74311929     1.26300
O1500       O  0.23072540  0.62455442  0.76616789    -0.66900
O1501       O  0.12406722  0.58846800  0.74452258    -0.79200
C1502       C  0.17372438  0.59025714  0.70611918     0.84300
O1503       O  0.15109680  0.57369722  0.71669065    -0.66300
Ni1504     Ni  0.13987257  0.57332053  0.78773639     1.27400
Ni1505     Ni  0.20201242  0.58135236  0.76826271     1.26100
H1506       H  0.18351731  0.55141202  0.74097978     0.38800
O1507       O  0.27948107  0.52971773  0.95330839    -0.81100
O1508       O  0.25832537  0.53788735  0.87209014    -0.65800
O1509       O  0.24295206  0.52036411  0.92343784    -1.12400
C1510       C  0.25512772  0.93686422  0.90631712     1.05800
O1511       O  0.21651856  0.99013773  0.86712919    -0.79000
O1512       O  0.19472065  0.94300669  0.89170166    -0.66600
Ni1513     Ni  0.26298286  0.55186619  0.94128839     1.34900
C1514       C  0.18536173  0.94023781  0.90828556     0.84500
O1515       O  0.24706399  0.56629762  0.89925170    -0.79600
O1516       O  0.24813324  0.57609378  0.92969826    -0.89800
C1517       C  0.23630611  0.51926361  0.86196665     0.84100
O1518       O  0.30164643  0.57477160  0.92962616    -0.68000
O1519       O  0.24803502  0.94182880  0.89009818    -0.87300
C1520       C  0.31247364  0.57258772  0.91425800     0.84900
C1521       C  0.24534810  0.58166185  0.91276190     1.06500
H1522       H  0.27879675  0.50309262  0.89533413     0.38300
O1523       O  0.25358559  0.99602063  0.89818916    -1.10000
O1524       O  0.20280536  0.95595317  0.92166768    -0.66600
Ni1525     Ni  0.24670183  0.98455572  0.92373835     1.26300
O1526       O  0.29584125  0.55611722  0.90098059    -0.66900
O1527       O  0.25456206  0.95109347  0.92087897    -0.79200
C1528       C  0.26211388  0.50400056  0.96065136     0.84300
O1529       O  0.24195903  0.97751664  0.95025350    -0.66300
Ni1530     Ni  0.23284939  0.96678767  0.87939931     1.27400
Ni1531     Ni  0.25206733  0.53097477  0.89802473     1.26100
H1532       H  0.22123049  0.51237390  0.92503695     0.38800
O1533       O  0.48911071  0.75492617  0.95495969    -0.81100
O1534       O  0.47969445  0.71677932  0.87545109    -0.65800
O1535       O  0.49708537  0.72394074  0.92682060    -1.12400
C1536       C  0.07424812  0.82485135  0.91093735     1.05800
O1537       O  0.02844975  0.73723897  0.86802316    -0.79000
O1538       O  0.07382887  0.76362522  0.89347039    -0.66600
Ni1539     Ni  0.46560273  0.71540579  0.94415534     1.34900
C1540       C  0.07697104  0.75523017  0.90951429     0.84500
O1541       O  0.45394386  0.67827652  0.90364300    -0.79600
O1542       O  0.44010654  0.67571479  0.93358331    -0.89800
C1543       C  0.49949391  0.71709550  0.86461520     0.84100
O1544       O  0.44370436  0.73127076  0.93136968    -0.68000
O1545       O  0.06940144  0.81500148  0.89418436    -0.87300
C1546       C  0.44236086  0.73754273  0.91456916     0.84900
C1547       C  0.43669557  0.66407315  0.91742310     1.06500
H1548       H  0.00854202  0.77433937  0.89931978     0.38300
O1549       O  0.01803222  0.76191372  0.90079766    -1.10000
O1550       O  0.06004903  0.75314260  0.92330937    -0.66600
Ni1551     Ni  0.02886439  0.76501391  0.92639820     1.26300
O1552       O  0.45766077  0.73397467  0.90191442    -0.66900
O1553       O  0.06064570  0.80774368  0.92495007    -0.79200
C1554       C  0.01157849  0.76018172  0.96299117     0.84300
O1555       O  0.03464033  0.76565858  0.95298797    -0.66300
Ni1556     Ni  0.04782211  0.77570489  0.88195475     1.27400
Ni1557     Ni  0.48682672  0.71992898  0.90131168     1.26100
H1558       H  0.00543460  0.70997622  0.92887412     0.38800
O1559       O  0.40342772  0.59073347  0.71597156    -0.81100
O1560       O  0.43205473  0.62387013  0.79564254    -0.65800
O1561       O  0.44314995  0.61943998  0.74404795    -1.12400
C1562       C  0.42665045  0.52062620  0.75964822     1.05800
O1563       O  0.46632730  0.60989784  0.80155787    -0.79000
O1564       O  0.48760096  0.58683275  0.77534895    -0.66600
Ni1565     Ni  0.42193564  0.63031248  0.72680313     1.34900
C1566       C  0.49599349  0.59292420  0.75857742     0.84500
O1567       O  0.44315507  0.66324842  0.76805155    -0.79600
O1568       O  0.43896372  0.67008329  0.73758370    -0.89800
C1569       C  0.45331850  0.62530185  0.80568668     0.84100
O1570       O  0.38454373  0.61649437  0.73957193    -0.68000
O1571       O  0.43445113  0.53164456  0.77608398    -0.87300
C1572       C  0.37494352  0.60477741  0.75536345     0.84900
C1573       C  0.44416017  0.67970797  0.75430465     1.06500
H1574       H  0.40743735  0.56735968  0.77249163     0.38300
O1575       O  0.42893044  0.58114590  0.77005844    -1.10000
O1576       O  0.47811984  0.59119280  0.74545651    -0.66600
Ni1577     Ni  0.43458434  0.57779233  0.74412635     1.26300
O1578       O  0.39242663  0.60510303  0.76812296    -0.66900
O1579       O  0.42559434  0.53592991  0.74576523    -0.79200
C1580       C  0.42019105  0.58275386  0.70760567     0.84300
O1581       O  0.43768627  0.57667059  0.71729990    -0.66300
Ni1582     Ni  0.44966945  0.57110155  0.78802636     1.27400
Ni1583     Ni  0.43623449  0.62209330  0.76961662     1.26100
H1584       H  0.46476314  0.63279196  0.74175982     0.38800
C1585       C  0.48858378  0.69414149  0.84907669    -0.00400
C1586       C  0.45684825  0.67313697  0.84749289    -0.12300
C1587       C  0.44505358  0.65030164  0.83380686     0.01800
C1588       C  0.46500196  0.64754336  0.82131871    -0.00500
C1589       C  0.49663922  0.66813693  0.82286077    -0.12200
C1590       C  0.01007360  0.69478603  0.83611594     0.01700
H1591       H  0.44090627  0.67435555  0.85703696     0.14700
H1592       H  0.01431415  0.67064853  0.81266813     0.14700
C1593       C  0.04238471  0.71719566  0.83580666     0.36400
C1594       C  0.41234484  0.62955376  0.83313488     0.36300
N1595       N  0.06825004  0.73526559  0.83547921    -0.44000
N1596       N  0.38613538  0.61294785  0.83263466    -0.44000
C1597       C  0.09806577  0.85786217  0.91357899    -0.00400
C1598       C  0.10361456  0.87797668  0.89871031    -0.12300
C1599       C  0.13043587  0.90656556  0.89775272     0.01800
C1600       C  0.15297058  0.91572974  0.91180205    -0.00500
C1601       C  0.14566342  0.89751108  0.92785404    -0.12200
C1602       C  0.11828588  0.86893183  0.92895860     0.01700
H1603       H  0.08763158  0.87064524  0.88718820     0.14700
H1604       H  0.16228226  0.90448518  0.93899539     0.14700
C1605       C  0.11246719  0.85102817  0.94561394     0.36400
C1606       C  0.13473508  0.92537471  0.88167263     0.36300
N1607       N  0.10768937  0.83708786  0.95916440    -0.44000
N1608       N  0.13799607  0.94024310  0.86872291    -0.44000
C1609       C  0.40904426  0.63377444  0.91439405    -0.00400
C1610       C  0.39291128  0.62866117  0.89763663    -0.12300
C1611       C  0.36154232  0.60702506  0.89661593     0.01800
C1612       C  0.34619550  0.58994679  0.91249617    -0.00500
C1613       C  0.36341188  0.59194003  0.92827157    -0.12200
C1614       C  0.39457607  0.61347627  0.92933328     0.01700
H1615       H  0.40389988  0.64367552  0.88591664     0.14700
H1616       H  0.35205373  0.57781908  0.94028085     0.14700
C1617       C  0.41056573  0.61555603  0.94638744     0.36400
C1618       C  0.34528481  0.60533779  0.87984122     0.36300
N1619       N  0.42324563  0.61724637  0.96010143    -0.44000
N1620       N  0.33252406  0.60429726  0.86630647    -0.44000
C1621       C  0.03003951  0.60146877  0.75460436    -0.00400
C1622       C  0.03326511  0.58162146  0.74239843    -0.12300
C1623       C  0.05961557  0.57880154  0.74274551     0.01800
C1624       C  0.08397772  0.59696067  0.75503618    -0.00500
C1625       C  0.08175080  0.61867447  0.76610632    -0.12200
C1626       C  0.05515243  0.62100437  0.76600535     0.01700
H1627       H  0.01390265  0.56599609  0.73394386     0.14700
H1628       H  0.10029854  0.63289136  0.77552479     0.14700
C1629       C  0.05357660  0.64269364  0.77835636     0.36400
C1630       C  0.05902199  0.55423430  0.73219737     0.36300
N1631       N  0.05235870  0.66012582  0.78823774    -0.44000
N1632       N  0.05770075  0.53403582  0.72384209    -0.44000
C1633       C  0.27905295  0.57140075  0.75675680    -0.00400
C1634       C  0.29671067  0.58665401  0.77244285    -0.12300
C1635       C  0.32804104  0.59636977  0.77307071     0.01800
C1636       C  0.34155637  0.58939281  0.75818855    -0.00500
C1637       C  0.32286200  0.57034370  0.74384765    -0.12200
C1638       C  0.29188174  0.56149193  0.74291588     0.01700
H1639       H  0.28700963  0.59422354  0.78319337     0.14700
H1640       H  0.33304153  0.56424088  0.73258450     0.14700
C1641       C  0.27448192  0.54429972  0.72691112     0.36400
C1642       C  0.34623156  0.61689497  0.78773806     0.36300
N1643       N  0.26072185  0.53074309  0.71399788    -0.44000
N1644       N  0.36043096  0.63369113  0.79947563    -0.44000
C1645       C  0.22497382  0.53130986  0.84700341    -0.00400
C1646       C  0.19346678  0.52100838  0.84605176    -0.12300
C1647       C  0.18149409  0.53278396  0.83291808     0.01800
C1648       C  0.20131728  0.55573037  0.82027807    -0.00500
C1649       C  0.23298026  0.56597809  0.82136717    -0.12200
C1650       C  0.24477227  0.55384367  0.83434661     0.01700
H1651       H  0.17807652  0.50387472  0.85583062     0.14700
H1652       H  0.24873129  0.58301815  0.81167028     0.14700
C1653       C  0.27691141  0.56333099  0.83339688     0.36400
C1654       C  0.14875983  0.52051110  0.83282079     0.36300
N1655       N  0.30258072  0.57074339  0.83213261    -0.44000
N1656       N  0.12248031  0.51046430  0.83279028    -0.44000
C1657       C  0.42193412  0.74967666  0.90998088    -0.00400
C1658       C  0.42321086  0.77278923  0.92139336    -0.12300
C1659       C  0.40047897  0.78081534  0.92053566     0.01800
C1660       C  0.37571531  0.76544877  0.90814483    -0.00500
C1661       C  0.37595645  0.74442980  0.89542533    -0.12200
C1662       C  0.39885626  0.73634232  0.89628438     0.01700
H1663       H  0.44126149  0.78355438  0.93168570     0.14700
H1664       H  0.35684120  0.73232108  0.88595395     0.14700
C1665       C  0.39637736  0.71223162  0.88430541     0.36400
C1666       C  0.40220287  0.80383000  0.93318129     0.36300
N1667       N  0.39427870  0.69288107  0.87469738    -0.44000
N1668       N  0.40355396  0.82226310  0.94331111    -0.44000
C1669       C  0.16105624  0.75326544  0.90733164    -0.00400
C1670       C  0.15270954  0.76168201  0.92404865    -0.12300
C1671       C  0.12395975  0.75974269  0.92608964     0.01800
C1672       C  0.10275035  0.74886769  0.91127660    -0.00500
C1673       C  0.10993966  0.73749679  0.89544126    -0.12200
C1674       C  0.13859630  0.73990951  0.89321092     0.01700
H1675       H  0.16935386  0.77162181  0.93515352     0.14700
H1676       H  0.09367867  0.72848586  0.88405492     0.14700
C1677       C  0.14439620  0.72960833  0.87580389     0.36400
C1678       C  0.11791432  0.77114969  0.94293458     0.36300
N1679       N  0.14889509  0.72161084  0.86172073    -0.44000
N1680       N  0.11333630  0.78023250  0.95657025    -0.44000
C1681       C  0.24209406  0.60882081  0.90900016    -0.00400
C1682       C  0.22974808  0.61865025  0.92304764    -0.12300
C1683       C  0.23527170  0.64869049  0.92338170     0.01800
C1684       C  0.25365705  0.66954080  0.90950633    -0.00500
C1685       C  0.26187310  0.65851197  0.89401208    -0.12200
C1686       C  0.25613962  0.62829570  0.89357367     0.01700
H1687       H  0.21756476  0.60348204  0.93451484     0.14700
H1688       H  0.27520709  0.67420499  0.88299955     0.14700
C1689       C  0.26745411  0.61921579  0.87788360     0.36400
C1690       C  0.22289268  0.65784426  0.93852587     0.36300
N1691       N  0.27649169  0.61237959  0.86508795    -0.44000
N1692       N  0.21276125  0.66494890  0.95064925    -0.44000
C1693       C  0.26430363  0.91299864  0.90773734    -0.00400
C1694       C  0.27637520  0.90700731  0.89182608    -0.12300
C1695       C  0.27980329  0.88126285  0.89056666     0.01800
C1696       C  0.27185802  0.86080165  0.90574838    -0.00500
C1697       C  0.26299637  0.86860537  0.92245001    -0.12200
C1698       C  0.25894522  0.89429195  0.92353843     0.01700
H1699       H  0.28160535  0.92165988  0.87976620     0.14700
H1700       H  0.25664745  0.85320511  0.93420561     0.14700
C1701       C  0.24691059  0.89927390  0.94049915     0.36400
C1702       C  0.28909733  0.87545183  0.87281495     0.36300
N1703       N  0.23725230  0.90324321  0.95410022    -0.44000
N1704       N  0.29583845  0.87107042  0.85829436    -0.44000
C1705       C  0.03201650  0.93665532  0.75870481    -0.00400
C1706       C  0.04057888  0.95465437  0.74251598    -0.12300
C1707       C  0.06827104  0.98286873  0.74166030     0.01800
C1708       C  0.08782019  0.99362353  0.75729247    -0.00500
C1709       C  0.08079928  0.97399181  0.77257686    -0.12200
C1710       C  0.05346357  0.94589945  0.77343277     0.01700
H1711       H  0.02480374  0.94766438  0.73090741     0.14700
H1712       H  0.09282428  0.48165314  0.78848809     0.14700
C1713       C  0.04782977  0.92773576  0.78999719     0.36400
C1714       C  0.07508682  0.00075630  0.72494589     0.36300
N1715       N  0.54368777  0.91275865  0.80378719    -0.44000
N1716       N  0.08046681  0.01447050  0.71127349    -0.44000
C1717       C  0.31415996  0.73660692  0.75621410    -0.00400
C1718       C  0.31305470  0.71646597  0.77005167    -0.12300
C1719       C  0.28952172  0.68575280  0.77029490     0.01800
C1720       C  0.26677689  0.67494944  0.75639317    -0.00500
C1721       C  0.26625139  0.69579799  0.74373628    -0.12200
C1722       C  0.28952850  0.72649140  0.74364237     0.01700
H1723       H  0.33194734  0.72399090  0.77969968     0.14700
H1724       H  0.24828122  0.68773390  0.73334558     0.14700
C1725       C  0.28801474  0.74691900  0.73021183     0.36400
C1726       C  0.29091072  0.66538040  0.78383571     0.36300
N1727       N  0.28652702  0.76321188  0.71950246    -0.44000
N1728       N  0.29215609  0.64927480  0.79479270    -0.44000
C1729       C  0.42040403  0.93185760  0.75916109    -0.00400
C1730       C  0.43521302  0.95285721  0.74471098    -0.12300
C1731       C  0.43722092  0.98171634  0.74471647     0.01800
C1732       C  0.42402870  0.98988460  0.75933151    -0.00500
C1733       C  0.40712224  0.96785289  0.77291965    -0.12200
C1734       C  0.40508478  0.93909036  0.77290039     0.01700
H1735       H  0.44742552  0.94777798  0.73422285     0.14700
H1736       H  0.39640704  0.97357672  0.78404018     0.14700
C1737       C  0.38794006  0.91769169  0.78750328     0.36400
C1738       C  0.44805209  0.50034550  0.72708965     0.36300
N1739       N  0.37421474  0.90044971  0.79915464    -0.44000
N1740       N  0.46107270  0.51694345  0.71503158    -0.44000
C1741       C  0.44916212  0.71093005  0.75744894    -0.00400
C1742       C  0.45881322  0.73101963  0.74226012    -0.12300
C1743       C  0.45252108  0.75491741  0.74140874     0.01800
C1744       C  0.43602986  0.75879982  0.75592660    -0.00500
C1745       C  0.43128556  0.74232892  0.77242514    -0.12200
C1746       C  0.43816239  0.71865380  0.77340550     0.01700
H1747       H  0.46910835  0.72657256  0.73034149     0.14700
H1748       H  0.42006518  0.74630042  0.78403236     0.14700
C1749       C  0.43185699  0.70172432  0.79049313     0.36400
C1750       C  0.46217330  0.77424738  0.72514512     0.36300
N1751       N  0.42719089  0.68869535  0.80438834    -0.44000
N1752       N  0.47018511  0.78968117  0.71210811    -0.44000
C1753       C  0.32310676  0.79266288  0.84691742    -0.00400
C1754       C  0.32861596  0.77207324  0.83687460    -0.12300
C1755       C  0.35334323  0.78255244  0.82451451     0.01800
C1756       C  0.37216411  0.81444380  0.82100208    -0.00500
C1757       C  0.36762581  0.83495373  0.83193405    -0.12200
C1758       C  0.34427363  0.82434152  0.84527379     0.01700
H1759       H  0.31393540  0.74761229  0.83902429     0.14700
H1760       H  0.38288707  0.85945247  0.83045786     0.14700
C1761       C  0.34521652  0.84598169  0.85871360     0.36400
C1762       C  0.35982108  0.76002313  0.81671659     0.36300
N1763       N  0.34704174  0.86322087  0.86993063    -0.44000
N1764       N  0.36540189  0.74196256  0.81093126    -0.44000
C1765       C  0.26083675  0.50255995  0.98134792    -0.00400
C1766       C  0.28311153  0.52819571  0.99144844    -0.12300
C1767       C  0.28114862  0.53042843  0.01072529     0.01800
C1768       C  0.25635708  0.50690430  0.02041285    -0.00500
C1769       C  0.23476416  0.48076833  0.01050736    -0.12200
C1770       C  0.23684407  0.47830208  0.99126899     0.01700
H1771       H  0.30223844  0.54686243  0.98425992     0.14700
H1772       H  0.21582840  0.46211211  0.01784383     0.14700
C1773       C  0.20783977  0.95103360  0.98238756     0.36400
C1774       C  0.30567305  0.55619178  0.02031345     0.36300
N1775       N  0.18852329  0.92901977  0.97553558    -0.44000
N1776       N  0.32555427  0.57659612  0.02804017    -0.44000
C1777       C  0.14935660  0.96466430  0.18192207    -0.00400
C1778       C  0.17053232  0.95417180  0.18076480    -0.12300
C1779       C  0.19393753  0.96570364  0.16743446     0.01800
C1780       C  0.19690880  0.98852487  0.15493766    -0.00500
C1781       C  0.17613414  0.99925933  0.15608960    -0.12200
C1782       C  0.15241262  0.98749921  0.16920560     0.01700
H1783       H  0.16906970  0.93699559  0.19041157     0.14700
H1784       H  0.18605677  0.52709702  0.15126163     0.14700
C1785       C  0.14336894  0.51352910  0.17609578     0.36400
C1786       C  0.21516917  0.95437740  0.16722044     0.36300
N1787       N  0.13054591  0.52699478  0.17809615    -0.44000
N1788       N  0.23219915  0.94531735  0.16713105    -0.44000
C1789       C  0.25742894  0.76470475  0.97848746    -0.00400
C1790       C  0.28104554  0.76370224  0.98836075    -0.12300
C1791       C  0.27979425  0.76011217  0.00765431     0.01800
C1792       C  0.25398746  0.75652571  0.01739966    -0.00500
C1793       C  0.23105228  0.75893813  0.00744812    -0.12200
C1794       C  0.23273291  0.76323840  0.98824467     0.01700
H1795       H  0.30033996  0.76510181  0.98085444     0.14700
H1796       H  0.21129329  0.75705868  0.01460667     0.14700
C1797       C  0.20799685  0.76422099  0.97877751     0.36400
C1798       C  0.30533264  0.76047307  0.01697263     0.36300
N1799       N  0.18820330  0.76505094  0.97118169    -0.44000
N1800       N  0.32588037  0.76102575  0.02450926    -0.44000
C1801       C  0.24296300  0.86360334  0.08875982    -0.00400
C1802       C  0.26743369  0.89305109  0.09286767    -0.12300
C1803       C  0.26274700  0.91830605  0.09326787     0.01800
C1804       C  0.23320266  0.91370583  0.08983546    -0.00500
C1805       C  0.20859685  0.88408369  0.08722639    -0.12200
C1806       C  0.21314643  0.85918506  0.08648124     0.01700
H1807       H  0.29033651  0.89656768  0.09461839     0.14700
H1808       H  0.18575613  0.88056177  0.08489702     0.14700
C1809       C  0.18672465  0.82966518  0.08238985     0.36400
C1810       C  0.28865646  0.94874558  0.09576499     0.36300
N1811       N  0.16513992  0.80657343  0.07873208    -0.44000
N1812       N  0.30931823  0.97324937  0.09769325    -0.44000
C1813       C  0.24367826  0.65834054  0.08790464    -0.00400
C1814       C  0.22514502  0.63587738  0.10083740    -0.12300
C1815       C  0.22332940  0.60730125  0.10113814     0.01800
C1816       C  0.23982164  0.60037784  0.08806013    -0.00500
C1817       C  0.25543406  0.62141645  0.07380149    -0.12200
C1818       C  0.25804364  0.65049560  0.07378880     0.01700
H1819       H  0.21337944  0.64126981  0.11146605     0.14700
H1820       H  0.26811994  0.61631886  0.06371577     0.14700
C1821       C  0.27839800  0.67275239  0.06044238     0.36400
C1822       C  0.20576942  0.58622677  0.11574233     0.36300
N1823       N  0.29490999  0.69067734  0.04986233    -0.44000
N1824       N  0.19171599  0.56965216  0.12757773    -0.44000
C1825       C  0.48914329  0.92294391  0.24428575    -0.00400
C1826       C  0.46689295  0.90268146  0.23176324    -0.12300
C1827       C  0.43754717  0.89912964  0.23133672     0.01800
C1828       C  0.43012147  0.91649052  0.24344956    -0.00500
C1829       C  0.45141113  0.93449030  0.25716239    -0.12200
C1830       C  0.48080642  0.93791162  0.25763528     0.01700
H1831       H  0.47289864  0.89053858  0.22172826     0.14700
H1832       H  0.44612087  0.94809170  0.26647725     0.14700
C1833       C  0.00177858  0.95785445  0.26996768     0.36400
C1834       C  0.41589011  0.87840790  0.21783040     0.36300
N1835       N  0.01884489  0.97427158  0.28094896    -0.44000
N1836       N  0.39858766  0.86175769  0.20701015    -0.44000
C1837       C  0.24206666  0.90681003  0.24253450    -0.00400
C1838       C  0.24748731  0.93545637  0.23599581    -0.12300
C1839       C  0.22437940  0.94339266  0.23708366     0.01800
C1840       C  0.19579339  0.92248236  0.24493357    -0.00500
C1841       C  0.18993198  0.89327099  0.25008061    -0.12200
C1842       C  0.21245470  0.88522443  0.24889959     0.01700
H1843       H  0.27008128  0.95211705  0.23098701     0.14700
H1844       H  0.16751580  0.87662312  0.25542355     0.14700
C1845       C  0.20447095  0.85469607  0.25481565     0.36400
C1846       C  0.23095086  0.97339646  0.23112044     0.36300
N1847       N  0.19777670  0.83029751  0.25977782    -0.44000
N1848       N  0.23619535  0.99746042  0.22632745    -0.44000
C1849       C  0.29134644  0.81923330  0.15009690    -0.00400
C1850       C  0.27601352  0.83534409  0.15448150    -0.12300
C1851       C  0.28736366  0.85854142  0.16786896     0.01800
C1852       C  0.31475486  0.86626725  0.17738017    -0.00500
C1853       C  0.33039348  0.85057480  0.17295342    -0.12200
C1854       C  0.31903955  0.82725355  0.15954062     0.01700
H1855       H  0.25498830  0.83002602  0.14733118     0.14700
H1856       H  0.35134587  0.85613112  0.18028066     0.14700
C1857       C  0.33665247  0.81244277  0.15576976     0.36400
C1858       C  0.27089725  0.87471761  0.17106330     0.36300
N1859       N  0.35092768  0.80071962  0.15281508    -0.44000
N1860       N  0.25771053  0.88770647  0.17352527    -0.44000
C1861       C  0.10002434  0.58412906  0.24823929    -0.00400
C1862       C  0.11978164  0.58068981  0.23601282    -0.12300
C1863       C  0.12329361  0.55483263  0.23692318     0.01800
C1864       C  0.10539483  0.53091063  0.24936499    -0.00500
C1865       C  0.08878765  0.53602107  0.26309249    -0.12200
C1866       C  0.08663500  0.56278633  0.26291133     0.01700
H1867       H  0.13184958  0.59781538  0.22540251     0.14700
H1868       H  0.07556424  0.51811654  0.27307902     0.14700
C1869       C  0.06913457  0.56671541  0.27732018     0.36400
C1870       C  0.14540439  0.55309347  0.22506890     0.36300
N1871       N  0.05561278  0.56989376  0.28920554    -0.44000
N1872       N  0.16372744  0.55189480  0.21604646    -0.44000
C1873       C  0.07950718  0.83599259  0.24129969    -0.00400
C1874       C  0.08948590  0.82675001  0.22571612    -0.12300
C1875       C  0.08460535  0.79680661  0.22452957     0.01800
C1876       C  0.07024048  0.77618324  0.23936238    -0.00500
C1877       C  0.05610614  0.78407544  0.25329817    -0.12200
C1878       C  0.06035838  0.81357231  0.25431381     0.01700
H1879       H  0.10331844  0.84349976  0.21528792     0.14700
H1880       H  0.04376392  0.76788044  0.26431775     0.14700
C1881       C  0.04658868  0.82073377  0.26964215     0.36400
C1882       C  0.09625807  0.78869615  0.20860134     0.36300
N1883       N  0.03560018  0.82637612  0.28197442    -0.44000
N1884       N  0.10505343  0.78235521  0.19549128    -0.44000
C1885       C  0.48774749  0.58553506  0.24260883    -0.00400
C1886       C  0.46830585  0.57677141  0.22709360    -0.12300
C1887       C  0.44038564  0.54919545  0.22678209     0.01800
C1888       C  0.43134433  0.52909941  0.24216695    -0.00500
C1889       C  0.44886418  0.53948058  0.25851779    -0.12200
C1890       C  0.47676087  0.56763506  0.25890741     0.01700
H1891       H  0.47571602  0.59083161  0.21469526     0.14700
H1892       H  0.44186538  0.52475948  0.27061851     0.14700
C1893       C  0.99257917  0.57620664  0.27797685     0.36400
C1894       C  0.42203979  0.54164550  0.21012124     0.36300
N1895       N  0.00522758  0.58431066  0.29202707    -0.44000
N1896       N  0.40739354  0.53555500  0.19676541    -0.44000
C1897       C  0.17703163  0.75878940  0.24157073    -0.00400
C1898       C  0.19604335  0.75880642  0.25582494    -0.12300
C1899       C  0.22756433  0.77976126  0.25586245     0.01800
C1900       C  0.24044688  0.80234587  0.24186450    -0.00500
C1901       C  0.22219697  0.79950928  0.22635668    -0.12200
C1902       C  0.19076757  0.77773710  0.22603080     0.01700
H1903       H  0.18600202  0.74311153  0.26738501     0.14700
H1904       H  0.23176715  0.81596619  0.21513523     0.14700
C1905       C  0.17304331  0.77706574  0.21020475     0.36400
C1906       C  0.24591256  0.77800784  0.27066995     0.36300
N1907       N  0.15940900  0.77666005  0.19721902    -0.44000
N1908       N  0.26060292  0.77631618  0.28244034    -0.44000
C1909       C  0.01269589  0.76385322  0.98337306    -0.00400
C1910       C  0.49748827  0.77689970  0.99133267    -0.12300
C1911       C  0.49168136  0.77463466  0.01042934     0.01800
C1912       C  0.00358519  0.76078748  0.02213443    -0.00500
C1913       C  0.02396619  0.75265907  0.01414659    -0.12200
C1914       C  0.02826545  0.75362253  0.99492884     0.01700
H1915       H  0.48752919  0.78715059  0.98258769     0.14700
H1916       H  0.03620969  0.74498797  0.02300389     0.14700
C1917       C  0.04673395  0.74170686  0.98743798     0.36400
C1918       C  0.47368029  0.78705016  0.01797627     0.36300
N1919       N  0.06121523  0.73170213  0.98153965    -0.44000
N1920       N  0.45920356  0.79694745  0.02403576    -0.44000
C1921       C  0.09982065  0.73341887  0.09508577    -0.00400
C1922       C  0.12012497  0.75050444  0.10940848    -0.12300
C1923       C  0.15046504  0.75655329  0.10923783     0.01800
C1924       C  0.16040048  0.74505925  0.09452917    -0.00500
C1925       C  0.13833976  0.72326391  0.08245214    -0.12200
C1926       C  0.10823585  0.71748623  0.08256139     0.01700
H1927       H  0.11352068  0.76219507  0.11941249     0.14700
H1928       H  0.14528781  0.71298056  0.07169402     0.14700
C1929       C  0.08710066  0.69702545  0.06875351     0.36400
C1930       C  0.17152221  0.77795564  0.12271398     0.36300
N1931       N  0.07017737  0.68066144  0.05768198    -0.44000
N1932       N  0.18831872  0.79522116  0.13349757    -0.44000
C1933       C  0.34661331  0.75661849  0.08751621    -0.00400
C1934       C  0.34540719  0.72940896  0.09330992    -0.12300
C1935       C  0.37170623  0.72704206  0.09468843     0.01800
C1936       C  0.40046113  0.75192469  0.08950568    -0.00500
C1937       C  0.40158914  0.77841354  0.08210198    -0.12200
C1938       C  0.37490103  0.78106567  0.08130987     0.01700
H1939       H  0.32370788  0.71013489  0.09777778     0.14700
H1940       H  0.42349222  0.79762100  0.07796013     0.14700
C1941       C  0.37745549  0.80956553  0.07540703     0.36400
C1942       C  0.36846174  0.69897430  0.10222321     0.36300
N1943       N  0.37952057  0.83249049  0.07073838    -0.44000
N1944       N  0.36564290  0.67660574  0.10854956    -0.44000
C1945       C  0.12969951  0.90526755  0.09400920    -0.00400
C1946       C  0.10586586  0.89313938  0.08089594    -0.12300
C1947       C  0.08413595  0.86181719  0.08049976     0.01800
C1948       C  0.08544552  0.84172509  0.09363970    -0.00500
C1949       C  0.10709129  0.85410527  0.10797361    -0.12200
C1950       C  0.12926983  0.88553832  0.10823769     0.01700
H1951       H  0.10539681  0.90782035  0.07006275     0.14700
H1952       H  0.10819973  0.83884330  0.11814450     0.14700
C1953       C  0.15295067  0.89597630  0.12219333     0.36400
C1954       C  0.06143969  0.85077523  0.06591173     0.36300
N1955       N  0.17196214  0.90422153  0.13335466    -0.44000
N1956       N  0.04343233  0.84247092  0.05413410    -0.44000
C1957       C  0.41221219  0.65423177  0.08750787    -0.00400
C1958       C  0.39077228  0.65137871  0.07402690    -0.12300
C1959       C  0.36093955  0.62581760  0.07381617     0.01800
C1960       C  0.35239169  0.60225321  0.08705743    -0.00500
C1961       C  0.37482143  0.60366617  0.09920435    -0.12200
C1962       C  0.40450205  0.62917699  0.09945687     0.01700
H1963       H  0.39618091  0.67058203  0.06494044     0.14700
H1964       H  0.36865212  0.58543765  0.10921812     0.14700
C1965       C  0.42619717  0.62979167  0.11278223     0.36400
C1966       C  0.33883442  0.62621739  0.06129183     0.36300
N1967       N  0.44354379  0.63015918  0.12344183    -0.44000
N1968       N  0.32153433  0.62707776  0.05111866    -0.44000
C1969       C  0.04960907  0.69125396  0.17993108    -0.00400
C1970       C  0.01782141  0.68006237  0.17989359    -0.12300
C1971       C  0.00436186  0.69170418  0.16756896     0.01800
C1972       C  0.02274166  0.71485681  0.15460853    -0.00500
C1973       C  0.05452629  0.72552859  0.15456699    -0.12200
C1974       C  0.06789220  0.71408692  0.16694637     0.01700
H1975       H  0.00354285  0.66293769  0.19002915     0.14700
H1976       H  0.06922722  0.74277555  0.14462494     0.14700
C1977       C  0.10039235  0.72541625  0.16552841     0.36400
C1978       C  0.47310387  0.68222514  0.16884118     0.36300
N1979       N  0.12639243  0.73438277  0.16417152    -0.44000
N1980       N  0.44688192  0.67206296  0.17005387    -0.44000
C1981       C  0.42052830  0.83714114  0.64829926    -0.00400
C1982       C  0.42066781  0.86161483  0.65790889    -0.12300
C1983       C  0.42614330  0.86571252  0.67707711     0.01800
C1984       C  0.43261823  0.84555556  0.68702745    -0.00500
C1985       C  0.43168245  0.82061860  0.67736211    -0.12200
C1986       C  0.42533893  0.81608059  0.65832453     0.01700
H1987       H  0.41676230  0.87790611  0.65028956     0.14700
H1988       H  0.43589173  0.80432535  0.68470770     0.14700
C1989       C  0.42506297  0.79036614  0.64932490     0.36400
C1990       C  0.42386017  0.89001336  0.68615199     0.36300
N1991       N  0.42466941  0.76962600  0.64216660    -0.44000
N1992       N  0.42170077  0.90932889  0.69339856    -0.44000
C1993       C  0.33483978  0.92906524  0.35025723    -0.00400
C1994       C  0.36258256  0.94960424  0.34113166    -0.12300
C1995       C  0.36514586  0.95075610  0.32177792     0.01800
C1996       C  0.33948291  0.93145283  0.31091157    -0.00500
C1997       C  0.31169657  0.91121642  0.31992649    -0.12200
C1998       C  0.30918877  0.90975426  0.33927510     0.01700
H1999       H  0.38281432  0.96481892  0.34911976     0.14700
H2000       H  0.29166753  0.89588537  0.31179944     0.14700
C2001       C  0.28015736  0.88766006  0.34717455     0.36400
C2002       C  0.39419954  0.97223764  0.31351750     0.36300
N2003       N  0.25656957  0.86957613  0.35300889    -0.44000
N2004       N  0.41748908  0.98940804  0.30688221    -0.44000
C2005       C  0.36248310  0.88358203  0.48356351    -0.00400
C2006       C  0.39402936  0.89891218  0.48781694    -0.12300
C2007       C  0.40584564  0.88816029  0.50167314     0.01800
C2008       C  0.38597138  0.86187714  0.51209337    -0.00500
C2009       C  0.35469341  0.84589714  0.50746728    -0.12200
C2010       C  0.34288089  0.85615735  0.49331932     0.01700
H2011       H  0.40978349  0.91926752  0.48011944     0.14700
H2012       H  0.33923172  0.82534077  0.51507533     0.14700
C2013       C  0.31076909  0.83725313  0.48881252     0.36400
C2014       C  0.43867473  0.90342756  0.50406624     0.36300
N2015       N  0.28510260  0.82187251  0.48511939    -0.44000
N2016       N  0.46502487  0.91544660  0.50573202    -0.44000
C2017       C  0.17530244  0.59045211  0.64633583    -0.00400
C2018       C  0.14839379  0.58446631  0.65595607    -0.12300
C2019       C  0.14668618  0.58296844  0.67530474     0.01800
C2020       C  0.17247496  0.58826444  0.68562928    -0.00500
C2021       C  0.19925123  0.59383849  0.67613511    -0.12200
C2022       C  0.20073752  0.59449541  0.65673465     0.01700
H2023       H  0.12823861  0.58074986  0.64837379     0.14700
H2024       H  0.21916680  0.59738915  0.68395319     0.14700
C2025       C  0.22814658  0.59817245  0.64804517     0.36400
C2026       C  0.11853487  0.57693031  0.68410860     0.36300
N2027       N  0.25002037  0.60070106  0.64117364    -0.44000
N2028       N  0.09582101  0.57201541  0.69100396    -0.44000
C2029       C  0.00617817  0.92528693  0.57632543    -0.00400
C2030       C  0.01775233  0.94485699  0.56099443    -0.12300
C2031       C  0.04853691  0.96827228  0.56052427     0.01800
C2032       C  0.06825074  0.97171175  0.57547287    -0.00500
C2033       C  0.05735830  0.94957056  0.58955978    -0.12200
C2034       C  0.02660079  0.92665015  0.59019011     0.01700
H2035       H  0.00220293  0.94361851  0.55019931     0.14700
H2036       H  0.07240887  0.95158723  0.60090295     0.14700
C2037       C  0.51654455  0.90260148  0.60574073     0.36400
C2038       C  0.05801709  0.99036562  0.54569582     0.36300
N2039       N  0.50859850  0.88463889  0.61751600    -0.44000
N2040       N  0.06525829  0.00802418  0.53379772    -0.44000
C2041       C  0.26556951  0.68948076  0.57713695    -0.00400
C2042       C  0.26925319  0.71243775  0.56463081    -0.12300
C2043       C  0.29580874  0.74142317  0.56472175     0.01800
C2044       C  0.31958363  0.74816382  0.57753986    -0.00500
C2045       C  0.31492863  0.72609686  0.59102115    -0.12200
C2046       C  0.28832301  0.69689679  0.59086658     0.01700
H2047       H  0.25185760  0.70726194  0.55416467     0.14700
H2048       H  0.33322814  0.73069458  0.60069826     0.14700
C2049       C  0.28653845  0.67407455  0.60368025     0.36400
C2050       C  0.29862715  0.76352461  0.55099669     0.36300
N2051       N  0.28519923  0.65572617  0.61387408    -0.44000
N2052       N  0.30074540  0.78116848  0.53998833    -0.44000
C2053       C  0.09019571  0.92468039  0.35396801    -0.00400
C2054       C  0.08423046  0.94630122  0.34527117    -0.12300
C2055       C  0.08063396  0.94664008  0.32599025     0.01800
C2056       C  0.08304686  0.92497900  0.31486496    -0.00500
C2057       C  0.08996819  0.90403068  0.32362676    -0.12200
C2058       C  0.09352717  0.90372584  0.34283899     0.01700
H2059       H  0.08184700  0.96285202  0.35365165     0.14700
H2060       H  0.09229393  0.88724143  0.31547700     0.14700
C2061       C  0.09866211  0.88039243  0.35069086     0.36400
C2062       C  0.07403703  0.96909720  0.31822673     0.36300
N2063       N  0.10250826  0.86133133  0.35671915    -0.44000
N2064       N  0.06874693  0.98720917  0.31217438    -0.44000
C2065       C  0.00455802  0.92264519  0.42153472    -0.00400
C2066       C  0.48591616  0.90546793  0.40573656    -0.12300
C2067       C  0.45489434  0.89637445  0.40410918     0.01800
C2068       C  0.44004915  0.90246175  0.41869594    -0.00500
C2069       C  0.45548744  0.91256762  0.43580679    -0.12200
C2070       C  0.48643183  0.92069144  0.43760195     0.01700
H2071       H  0.00227949  0.91161684  0.39248876     0.14700
H2072       H  0.44414133  0.91622778  0.44746418     0.14700
C2073       C  0.50109939  0.93099162  0.45538058     0.36400
C2074       C  0.43926146  0.88178075  0.38708484     0.36300
N2075       N  0.01068216  0.93125286  0.47034844    -0.44000
N2076       N  0.42677079  0.86993212  0.37347302    -0.44000
C2077       C  0.19185331  0.93433543  0.42392748    -0.00400
C2078       C  0.21132491  0.94434865  0.43943211    -0.12300
C2079       C  0.23917625  0.94467624  0.43944828     0.01800
C2080       C  0.24793242  0.93383374  0.42384849    -0.00500
C2081       C  0.23050084  0.92763860  0.40749655    -0.12200
C2082       C  0.20287950  0.92834901  0.40732852     0.01700
H2083       H  0.20413154  0.95078030  0.45199785     0.14700
H2084       H  0.23759830  0.92078977  0.39508496     0.14700
C2085       C  0.18619904  0.92221270  0.39012947     0.36400
C2086       C  0.25802609  0.95598441  0.45587295     0.36300
N2087       N  0.17327809  0.91793817  0.37619574    -0.44000
N2088       N  0.27303303  0.96526441  0.46905156    -0.44000
C2089       C  0.12624872  0.97840938  0.48853296    -0.00400
C2090       C  0.11500648  0.99886427  0.48999613    -0.12300
C2091       C  0.12210987  0.51923141  0.50389592     0.01800
C2092       C  0.15071960  0.53013464  0.51276398    -0.00500
C2093       C  0.16756238  0.51541108  0.50891945    -0.12200
C2094       C  0.15634132  0.49026576  0.49670345     0.01700
H2095       H  0.09644509  0.99601665  0.48111580     0.14700
H2096       H  0.18955116  0.52338718  0.51561400     0.14700
C2097       C  0.17564247  0.47732037  0.49296025     0.36400
C2098       C  0.11535527  0.04394684  0.50256422     0.36300
N2099       N  0.19126997  0.46711833  0.48994763    -0.44000
N2100       N  0.10531891  0.06016360  0.50255487    -0.44000
C2101       C  0.09303207  0.67411271  0.35486357    -0.00400
C2102       C  0.10576310  0.70213570  0.34546899    -0.12300
C2103       C  0.10583574  0.70337912  0.32601134     0.01800
C2104       C  0.09242236  0.67591267  0.31522927    -0.00500
C2105       C  0.07926625  0.64787548  0.32462674    -0.12200
C2106       C  0.07961075  0.64664990  0.34407913     0.01700
H2107       H  0.11604586  0.72331681  0.35335634     0.14700
H2108       H  0.06892127  0.62669428  0.31673660     0.14700
C2109       C  0.06556531  0.61652556  0.35237118     0.36400
C2110       C  0.11973315  0.73350030  0.31771175     0.36300
N2111       N  0.05440207  0.59231747  0.35890317    -0.44000
N2112       N  0.13103426  0.75768865  0.31114100    -0.44000
C2113       C  0.10669733  0.54111110  0.43071963    -0.00400
C2114       C  0.12318241  0.56584780  0.41858124    -0.12300
C2115       C  0.11817929  0.59073992  0.41832731     0.01800
C2116       C  0.09662117  0.59125001  0.43050582    -0.00500
C2117       C  0.08375103  0.56906087  0.44442704    -0.12200
C2118       C  0.08808162  0.54369595  0.44444526     0.01700
H2119       H  0.13809682  0.56454610  0.40825048     0.14700
H2120       H  0.06750263  0.56965803  0.45395588     0.14700
C2121       C  0.06937625  0.51895005  0.45687723     0.36400
C2122       C  0.13390909  0.61459613  0.40470513     0.36300
N2123       N  0.05358457  0.49952442  0.46689807    -0.44000
N2124       N  0.14643873  0.63383094  0.39385444    -0.44000
C2125       C  0.07780860  0.76287634  0.42341904    -0.00400
C2126       C  0.09448155  0.78389855  0.40935842    -0.12300
C2127       C  0.09705321  0.81298261  0.40878837     0.01800
C2128       C  0.08163340  0.82105702  0.42200714    -0.00500
C2129       C  0.06250555  0.79872510  0.43494286    -0.12200
C2130       C  0.06081684  0.77009934  0.43591122     0.01700
H2131       H  0.10832308  0.77894645  0.40003757     0.14700
H2132       H  0.05046393  0.80445791  0.44519577     0.14700
C2133       C  0.04303336  0.74925822  0.45058997     0.36400
C2134       C  0.11922853  0.83521876  0.39626981     0.36300
N2135       N  0.02890979  0.73261514  0.46239902    -0.44000
N2136       N  0.13769375  0.85248391  0.38626481    -0.44000
C2137       C  0.18993028  0.76809630  0.42303880    -0.00400
C2138       C  0.19455814  0.78986202  0.40941661    -0.12300
C2139       C  0.22245939  0.81759303  0.40826705     0.01800
C2140       C  0.24682507  0.82321888  0.42033876    -0.00500
C2141       C  0.24296928  0.80013671  0.43281017    -0.12200
C2142       C  0.21476978  0.77294157  0.43441107     0.01700
H2143       H  0.17540662  0.78652459  0.40086266     0.14700
H2144       H  0.26140056  0.80434052  0.44228956     0.14700
C2145       C  0.21152112  0.75100170  0.44839376     0.36400
C2146       C  0.22364444  0.84147319  0.39668380     0.36300
N2147       N  0.20892125  0.73350665  0.45965339    -0.44000
N2148       N  0.22399781  0.86065148  0.38770759    -0.44000
C2149       C  0.47167574  0.56728118  0.43047083    -0.00400
C2150       C  0.44689786  0.55909628  0.41843965    -0.12300
C2151       C  0.42314935  0.52871655  0.41721720     0.01800
C2152       C  0.42416461  0.50605365  0.42813609    -0.00500
C2153       C  0.44652748  0.51486462  0.44197747    -0.12200
C2154       C  0.47040588  0.54536113  0.44321436     0.01700
H2155       H  0.44743225  0.57596078  0.40886943     0.14700
H2156       H  0.44376301  0.99977215  0.44634393     0.14700
C2157       C  0.99597663  0.55266460  0.45681876     0.36400
C2158       C  0.39885069  0.52102868  0.40396142     0.36300
N2159       N  0.01454709  0.55764151  0.46786994    -0.44000
N2160       N  0.37932002  0.51493023  0.39340469    -0.44000
C2161       C  0.41941256  0.59004121  0.64781587    -0.00400
C2162       C  0.44213790  0.58605578  0.65665611    -0.12300
C2163       C  0.44260399  0.58275438  0.67590485     0.01800
C2164       C  0.41972332  0.58311161  0.68690875    -0.00500
C2165       C  0.39681598  0.58695588  0.67796191    -0.12200
C2166       C  0.39660679  0.59057860  0.65867848     0.01700
H2167       H  0.45988042  0.58559853  0.64840648     0.14700
H2168       H  0.37890570  0.58732772  0.68605721     0.14700
C2169       C  0.37219101  0.59361394  0.65037438     0.36400
C2170       C  0.46733906  0.57990908  0.68385455     0.36300
N2171       N  0.35258545  0.59600276  0.64373432    -0.44000
N2172       N  0.48732185  0.57777396  0.69012322    -0.44000
C2173       C  0.43131827  0.75012256  0.57757796    -0.00400
C2174       C  0.42020891  0.73050384  0.59302096    -0.12300
C2175       C  0.42219561  0.70362283  0.59388800     0.01800
C2176       C  0.43674989  0.69668651  0.57944789    -0.00500
C2177       C  0.45106479  0.71834384  0.56523856    -0.12200
C2178       C  0.44783931  0.74427341  0.56389054     0.01700
H2179       H  0.40737039  0.73457930  0.60357670     0.14700
H2180       H  0.46244625  0.71349320  0.55409353     0.14700
C2181       C  0.45997228  0.76314984  0.54754649     0.36400
C2182       C  0.40549541  0.68178156  0.60835060     0.36300
N2183       N  0.46934387  0.77776321  0.53424316    -0.44000
N2184       N  0.39175674  0.66419471  0.61984252    -0.44000
C2185       C  0.42218289  0.50710584  0.57774295    -0.00400
C2186       C  0.43351654  0.99774464  0.56235170    -0.12300
C2187       C  0.42665690  0.96712531  0.56177343     0.01800
C2188       C  0.40711242  0.94607094  0.57531399    -0.00500
C2189       C  0.39274454  0.95570773  0.58812400    -0.12200
C2190       C  0.40495653  0.48672599  0.59214030     0.01700
H2191       H  0.45036188  0.01427944  0.55287362     0.14700
H2192       H  0.37754397  0.93974577  0.59848654     0.14700
C2193       C  0.39624161  0.49695845  0.60854546     0.36400
C2194       C  0.44307855  0.95915680  0.54864401     0.36300
N2195       N  0.38922138  0.50479575  0.62181388    -0.44000
N2196       N  0.45652532  0.95314643  0.53810621    -0.44000
C2197       C  0.32780687  0.59637958  0.57807955    -0.00400
C2198       C  0.30196410  0.56883647  0.58385668    -0.12300
C2199       C  0.27244925  0.56551742  0.58321325     0.01800
C2200       C  0.26911861  0.59018204  0.57695977    -0.00500
C2201       C  0.29524686  0.61816478  0.57266916    -0.12200
C2202       C  0.32421586  0.62139120  0.57296277     0.01700
H2203       H  0.30459156  0.54952430  0.58779543     0.14700
H2204       H  0.29283016  0.63743548  0.56821142     0.14700
C2205       C  0.34965087  0.65037956  0.56697099     0.36400
C2206       C  0.24602956  0.53636749  0.58775254     0.36300
N2207       N  0.36953090  0.67362770  0.56183723    -0.44000
N2208       N  0.22480614  0.51295475  0.59134710    -0.44000
C2209       C  0.04283282  0.60732327  0.57757968    -0.00400
C2210       C  0.06370259  0.61604283  0.59232923    -0.12300
C2211       C  0.08658600  0.60828042  0.59243839     0.01800
C2212       C  0.08941129  0.59211308  0.57729258    -0.00500
C2213       C  0.07192583  0.58784223  0.56131753    -0.12200
C2214       C  0.04837720  0.59494606  0.56137073     0.01700
H2215       H  0.06059353  0.62674779  0.60454074     0.14700
H2216       H  0.07480011  0.57647088  0.54939204     0.14700
C2217       C  0.02863401  0.58624136  0.54534129     0.36400
C2218       C  0.10568509  0.61584569  0.60875821     0.36300
N2219       N  0.01300704  0.57899112  0.53238619    -0.44000
N2220       N  0.12062242  0.62208602  0.62199274    -0.44000
C2221       C  0.48301769  0.62984319  0.51401308    -0.00400
C2222       C  0.50317966  0.66161181  0.51253014    -0.12300
C2223       C  0.03127467  0.67434094  0.50325068     0.01800
C2224       C  0.03363827  0.65488667  0.48999663    -0.00500
C2225       C  0.01145039  0.62340509  0.49030816    -0.12200
C2226       C  0.48715500  0.61008329  0.50209414     0.01700
H2227       H  0.50035680  0.67703881  0.52172790     0.14700
H2228       H  0.01222222  0.60807483  0.48010431     0.14700
C2229       C  0.46590055  0.57743904  0.50197974     0.36400
C2230       C  0.05314268  0.70677229  0.50414944     0.36300
N2231       N  0.44880472  0.55130454  0.50179887    -0.44000
N2232       N  0.07051241  0.73280575  0.50497023    -0.44000
O2233       O  0.92853652  0.06961592  0.62071187    -0.81100
O2234       O  0.95916223  0.09991574  0.53967732    -0.65800
O2235       O  0.95704229  0.10924811  0.59193528    -1.12400
C2236       C  0.86303857  0.10446134  0.57836275     1.05800
O2237       O  0.95000225  0.13787353  0.53513200    -0.79000
O2238       O  0.93515808  0.16219208  0.56347176    -0.66600
Ni2239     Ni  0.96659721  0.08540838  0.60818673     1.34900
C2240       C  0.93704888  0.16773966  0.58067769     0.84500
O2241       O  0.99776769  0.10624655  0.56638270    -0.79600
O2242       O  0.50504219  0.10005992  0.59780202    -0.89800
C2243       C  0.96251809  0.12246838  0.53015556     0.84100
O2244       O  0.94842918  0.04798806  0.59468850    -0.68000
O2245       O  0.87589046  0.11564766  0.56274713    -0.87300
C2246       C  0.93684011  0.04005363  0.57866530     0.84900
C2247       C  0.51389826  0.10478606  0.58096137     1.06500
H2248       H  0.90377911  0.07892911  0.56280861     0.38300
O2249       O  0.91903453  0.09963075  0.56616885    -1.10000
O2250       O  0.93118017  0.14731423  0.59301363    -0.66600
Ni2251     Ni  0.91624968  0.10327452  0.59247808     1.26300
O2252       O  0.93845688  0.05899158  0.56648795    -0.66900
O2253       O  0.87518153  0.09657411  0.59125169    -0.79200
C2254       C  0.92126551  0.08706642  0.62897496     0.84300
O2255       O  0.91541969  0.10482462  0.61940966    -0.66300
Ni2256     Ni  0.91314830  0.12550394  0.54975577     1.27400
Ni2257     Ni  0.95837701  0.10319384  0.56592181     1.26100
H2258       H  0.97142881  0.13053994  0.59458180     0.38800
O2259       O  0.59339703  0.15400751  0.38093623    -0.81100
O2260       O  0.55365506  0.14538604  0.46102351    -0.65800
O2261       O  0.56063821  0.15886116  0.40894183    -1.12400
C2262       C  0.65761314  0.24408732  0.42594400     1.05800
O2263       O  0.56759092  0.19371227  0.46629531    -0.79000
O2264       O  0.59344080  0.23888408  0.44070992    -0.66600
Ni2265     Ni  0.55531169  0.12739002  0.39233472     1.34900
C2266       C  0.58478556  0.23954182  0.42430242     0.84500
O2267       O  0.51709460  0.11451902  0.43281616    -0.79600
O2268       O  0.51722189  0.09862403  0.40360255    -0.89800
C2269       C  0.55163778  0.16540283  0.47061261     0.84100
O2270       O  0.57668765  0.11192091  0.40571864    -0.68000
O2271       O  0.64703227  0.23895920  0.44252163    -0.87300
C2272       C  0.58292809  0.11167688  0.42262295     0.84900
C2273       C  0.50491055  0.09543755  0.41951817     1.06500
H2274       H  0.61176447  0.17785326  0.43766887     0.38300
O2275       O  0.59747239  0.18497050  0.43544092    -1.10000
O2276       O  0.58388547  0.22175312  0.41141318    -0.66600
Ni2277     Ni  0.60077660  0.19470733  0.40958451     1.26300
O2278       O  0.57529648  0.12422348  0.43519345    -0.66900
O2279       O  0.64160065  0.22984161  0.41166324    -0.79200
C2280       C  0.59711074  0.17760401  0.37276382     0.84300
O2281       O  0.60141740  0.20024968  0.38281088    -0.66300
Ni2282     Ni  0.60709154  0.21527119  0.45368256     1.27400
Ni2283     Ni  0.55711134  0.15016918  0.43479013     1.26100
H2284       H  0.54581973  0.16486234  0.40568424     0.38800
O2285       O  0.57320984  0.42821057  0.38109275    -0.81100
O2286       O  0.59474293  0.45487769  0.46261360    -0.65800
O2287       O  0.60907844  0.45553660  0.41104145    -1.12400
C2288       C  0.59544292  0.35692049  0.42455218     1.05800
O2289       O  0.63032300  0.44295488  0.46849321    -0.79000
O2290       O  0.65390270  0.42196243  0.44241900    -0.66600
Ni2291     Ni  0.58730339  0.46582389  0.39379527     1.34900
C2292       C  0.66418717  0.43097764  0.42618750     0.84500
O2293       O  0.60217692  0.99503188  0.43602598    -0.79600
O2294       O  0.60084337  0.00519102  0.40576739    -0.89800
C2295       C  0.61705489  0.45820628  0.47243157     0.84100
O2296       O  0.54847384  0.44708175  0.40563626    -0.68000
O2297       O  0.60112842  0.36636600  0.44141309    -0.87300
C2298       C  0.53843566  0.43501123  0.42134955     0.84900
C2299       C  0.60358859  0.01267741  0.42287081     1.06500
H2300       H  0.57370153  0.40070683  0.43755265     0.38300
O2301       O  0.59518965  0.41549557  0.43596579    -1.10000
O2302       O  0.64742969  0.43085385  0.41281984    -0.66600
Ni2303     Ni  0.60344746  0.41487519  0.41017976     1.26300
O2304       O  0.55597237  0.43649567  0.43446048    -0.66900
O2305       O  0.59663481  0.37366267  0.41085009    -0.79200
C2306       C  0.59195935  0.42213651  0.37342963     0.84300
O2307       O  0.60914804  0.41617777  0.38349307    -0.66300
Ni2308     Ni  0.61510819  0.40495713  0.45421437     1.27400
Ni2309     Ni  0.60011370  0.45547273  0.43660527     1.26100
H2310       H  0.63058692  0.47015525  0.40932990     0.38800
O2311       O  0.65279441  0.08634376  0.62073206    -0.81100
O2312       O  0.64352790  0.05373168  0.53957779    -0.65800
O2313       O  0.65972633  0.05726814  0.59106404    -1.12400
C2314       C  0.74216931  0.15657595  0.57473440     1.05800
O2315       O  0.69159713  0.06707229  0.53365365    -0.79000
O2316       O  0.73960927  0.09599321  0.55848245    -0.66600
Ni2317     Ni  0.62846161  0.04810011  0.60874444     1.34900
C2318       C  0.74242117  0.08894812  0.57496442     0.84500
O2319       O  0.61459863  0.01457207  0.56707075    -0.79600
O2320       O  0.60170525  0.00951784  0.59728562    -0.89800
C2321       C  0.66299609  0.05147917  0.52966577     0.84100
O2322       O  0.60831890  0.06653807  0.59680697    -0.68000
O2323       O  0.73629109  0.14722982  0.55781422    -0.87300
C2324       C  0.60840671  0.07581743  0.58051992     0.84900
C2325       C  0.59709889  0.99980307  0.58060704     1.06500
H2326       H  0.67579157  0.10978536  0.56353319     0.38300
O2327       O  0.68352715  0.09585690  0.56513858    -1.10000
O2328       O  0.72305230  0.08389042  0.58779137    -0.66600
Ni2329     Ni  0.69412847  0.09836894  0.59060590     1.26300
O2330       O  0.62289848  0.07233851  0.56724724    -0.66900
O2331       O  0.72796615  0.13975528  0.58872068    -0.79200
C2332       C  0.67846636  0.09348797  0.62760594     0.84300
O2333       O  0.70076668  0.09889763  0.61701233    -0.66300
Ni2334     Ni  0.71306860  0.10696359  0.54633965     1.27400
Ni2335     Ni  0.64954465  0.05514889  0.56555705     1.26100
H2336       H  0.66715779  0.04320098  0.59320331     0.38800
O2337       O  0.86457670  0.44573246  0.38122034    -0.81100
O2338       O  0.86952530  0.41391311  0.46133093    -0.65800
O2339       O  0.85450468  0.40634581  0.40959256    -1.12400
C2340       C  0.77491279  0.42669222  0.42684845     1.05800
O2341       O  0.82100816  0.38192447  0.46764029    -0.79000
O2342       O  0.77622074  0.36414364  0.44177500    -0.66600
Ni2343     Ni  0.88705741  0.42937123  0.39274770     1.34900
C2344       C  0.77377698  0.35489350  0.42517621     0.84500
O2345       O  0.89718562  0.40313624  0.43348691    -0.79600
O2346       O  0.91199861  0.41501531  0.40381884    -0.89800
C2347       C  0.84943200  0.39253277  0.47115765     0.84100
O2348       O  0.90765220  0.46678953  0.40597217    -0.68000
O2349       O  0.77866908  0.41916602  0.44323580    -0.87300
C2350       C  0.90753725  0.47418451  0.42268506     0.84900
C2351       C  0.91482999  0.40631774  0.41994067     1.06500
H2352       H  0.84021993  0.44221087  0.43862335     0.38300
O2353       O  0.83144856  0.42054489  0.43623978    -1.10000
O2354       O  0.79093096  0.37172925  0.41200535    -0.66600
Ni2355     Ni  0.82151821  0.41519518  0.41038549     1.26300
O2356       O  0.89243245  0.45491258  0.43525160    -0.66900
O2357       O  0.78926446  0.42518608  0.41258789    -0.79200
C2358       C  0.83921845  0.42849915  0.37350423     0.84300
O2359       O  0.81597777  0.41172933  0.38362385    -0.66300
Ni2360     Ni  0.80095976  0.40135923  0.45460856     1.27400
Ni2361     Ni  0.86386327  0.41142720  0.43535181     1.26100
H2362       H  0.84618044  0.38493667  0.40659324     0.38800
O2363       O  0.94424041  0.36410687  0.62100352    -0.81100
O2364       O  0.91471250  0.36677656  0.54019913    -0.65800
O2365       O  0.90546048  0.35458799  0.59220360    -1.12400
C2366       C  0.92448255  0.27293789  0.57859768     1.05800
O2367       O  0.88335126  0.31765803  0.53417192    -0.79000
O2368       O  0.86356859  0.27371554  0.56089213    -0.66600
Ni2369     Ni  0.92986149  0.38755816  0.60857863     1.34900
C2370       C  0.85306207  0.27267667  0.57701598     0.84500
O2371       O  0.90479242  0.39714556  0.56713574    -0.79600
O2372       O  0.91773613  0.41357491  0.59658792    -0.89800
C2373       C  0.89496581  0.34596637  0.52985845     0.84100
O2374       O  0.96746151  0.40560829  0.59554955    -0.68000
O2375       O  0.91893745  0.27625934  0.56163492    -0.87300
C2376       C  0.97435988  0.40479443  0.57883332     0.84900
C2377       C  0.90956819  0.41615448  0.58025541     1.06500
H2378       H  0.94119469  0.33760236  0.56509482     0.38300
O2379       O  0.91944926  0.32926117  0.56679284    -1.10000
O2380       O  0.86890364  0.29072861  0.59022113    -0.66600
Ni2381     Ni  0.91255044  0.32051547  0.59270086     1.26300
O2382       O  0.95477406  0.39002020  0.56638553    -0.66900
O2383       O  0.92122305  0.28742280  0.59212967    -0.79200
C2384       C  0.92604716  0.33954627  0.62914031     0.84300
O2385       O  0.90785258  0.31627086  0.61943236    -0.66300
Ni2386     Ni  0.90165323  0.29798116  0.54875390     1.27400
Ni2387     Ni  0.91133998  0.36248147  0.56630750     1.26100
H2388       H  0.88420740  0.34736269  0.59503396     0.38800
O2389       O  0.52674287  0.27844333  0.05016093    -0.81100
O2390       O  0.52836838  0.25160618  0.13151327    -0.65800
O2391       O  0.51678649  0.24083274  0.07970115    -1.12400
C2392       C  0.93121844  0.25352743  0.09343811     1.05800
O2393       O  0.98321281  0.21813239  0.13669610    -0.79000
O2394       O  0.93978189  0.19440254  0.10980018    -0.66600
Ni2395     Ni  0.54989953  0.26427942  0.06324348     1.34900
C2396       C  0.93700375  0.18674917  0.09284806     0.84500
O2397       O  0.55993224  0.24281882  0.10537331    -0.79600
O2398       O  0.57504389  0.25136168  0.07559419    -0.89800
C2399       C  0.51001681  0.22787070  0.14041849     0.84100
O2400       O  0.56881524  0.30248656  0.07600402    -0.68000
O2401       O  0.93372218  0.24492859  0.10979148    -0.87300
C2402       C  0.56641597  0.31075022  0.09218435     0.84900
C2403       C  0.57746568  0.24430439  0.09223133     1.06500
H2404       H  0.49553543  0.27338282  0.10774862     0.38300
O2405       O  0.99078126  0.25503542  0.10493178    -1.10000
O2406       O  0.95268422  0.20541922  0.07995668    -0.66600
Ni2407     Ni  0.98287342  0.24901524  0.07893816     1.26300
O2408       O  0.55013129  0.29192013  0.10472680    -0.66900
O2409       O  0.94955246  0.25755554  0.08000827    -0.79200
C2410       C  0.50183132  0.25981784  0.04241859     0.84300
O2411       O  0.97924662  0.24508869  0.05213365    -0.66300
Ni2412     Ni  0.95964147  0.23257274  0.12251919     1.27400
Ni2413     Ni  0.52450383  0.24769337  0.10555400     1.26100
H2414       H  0.50991633  0.21949846  0.07730614     0.38800
O2415       O  0.60803308  0.20192715  0.28475863    -0.81100
O2416       O  0.58687166  0.20275920  0.20215848    -0.65800
O2417       O  0.57320557  0.19164311  0.25387994    -1.12400
C2418       C  0.59279224  0.10943725  0.24231082     1.05800
O2419       O  0.55351411  0.15388601  0.19745815    -0.79000
O2420       O  0.53415690  0.10964574  0.22356044    -0.66600
Ni2421     Ni  0.59497453  0.22485968  0.27046125     1.34900
C2422       C  0.52181211  0.10919843  0.23895867     0.84500
O2423       O  0.57360273  0.23312142  0.22738020    -0.79600
O2424       O  0.58310684  0.24980558  0.25687580    -0.89800
C2425       C  0.56525381  0.18198092  0.19278192     0.84100
O2426       O  0.63414719  0.24337551  0.25904834    -0.68000
O2427       O  0.58985613  0.11414779  0.22515230    -0.87300
C2428       C  0.64343379  0.24260411  0.24289107     0.84900
C2429       C  0.57531753  0.25134153  0.24024580     1.06500
H2430       H  0.61139518  0.17452487  0.22891336     0.38300
O2431       O  0.58954022  0.16626732  0.22991937    -1.10000
O2432       O  0.53636945  0.12816834  0.25205679    -0.66600
Ni2433     Ni  0.58007835  0.15739442  0.25555059     1.26300
O2434       O  0.62536505  0.22758964  0.22971540    -0.66900
O2435       O  0.58815349  0.12347198  0.25569861    -0.79200
C2436       C  0.58912171  0.17691825  0.29229370     0.84300
O2437       O  0.57300504  0.15344002  0.28211208    -0.66300
Ni2438     Ni  0.57243877  0.13500124  0.21191566     1.27400
Ni2439     Ni  0.58160599  0.19940869  0.22813924     1.26100
H2440       H  0.55164268  0.18427863  0.25571407     0.38800
O2441       O  0.81506633  0.41763751  0.28537007    -0.81100
O2442       O  0.80932495  0.39191776  0.20496034    -0.65800
O2443       O  0.82847350  0.39379641  0.25563585    -1.12400
C2444       C  0.90729168  0.49490206  0.24068817     1.05800
O2445       O  0.85718048  0.40688497  0.19746896    -0.79000
O2446       O  0.90196715  0.42802366  0.22341100    -0.66600
Ni2447     Ni  0.79702830  0.37861142  0.27357638     1.34900
C2448       C  0.90616799  0.42317631  0.24011085     0.84500
O2449       O  0.78332685  0.35050662  0.23166376    -0.79600
O2450       O  0.77693434  0.33904104  0.26200828    -0.89800
C2451       C  0.82844681  0.39090229  0.19413791     0.84100
O2452       O  0.76898524  0.38795746  0.26183636    -0.68000
O2453       O  0.90468320  0.48341846  0.22444996    -0.87300
C2454       C  0.76890844  0.40048311  0.24664375     0.84900
C2455       C  0.76945586  0.33203125  0.24503684     1.06500
H2456       H  0.84111188  0.44679716  0.22821079     0.38300
O2457       O  0.84961866  0.43362619  0.23023490    -1.10000
O2458       O  0.89143298  0.42576493  0.25370929    -0.66600
Ni2459     Ni  0.85956756  0.43649279  0.25597396     1.26300
O2460       O  0.78894005  0.40702782  0.23417621    -0.66900
O2461       O  0.89083741  0.47946386  0.25456393    -0.79200
C2462       C  0.84113288  0.42894402  0.29292394     0.84300
O2463       O  0.86461468  0.43702704  0.28266708    -0.66300
Ni2464     Ni  0.87988444  0.44476089  0.21181042     1.27400
Ni2465     Ni  0.81707484  0.39218093  0.23053784     1.26100
H2466       H  0.83838002  0.38162550  0.25676759     0.38800
O2467       O  0.72973689  0.25295078  0.04648402    -0.81100
O2468       O  0.75965089  0.29674495  0.12618595    -0.65800
O2469       O  0.76581030  0.28879700  0.07439829    -1.12400
C2470       C  0.75363459  0.19220828  0.09223587     1.05800
O2471       O  0.79279119  0.28140401  0.13216882    -0.79000
O2472       O  0.81026691  0.25170636  0.10777333    -0.66600
Ni2473     Ni  0.73634479  0.28930647  0.05827378     1.34900
C2474       C  0.82168135  0.26191525  0.09191982     0.84500
O2475       O  0.76436013  0.33255653  0.09740402    -0.79600
O2476       O  0.74037155  0.32519529  0.06987148    -0.89800
C2477       C  0.78116787  0.29815627  0.13600664     0.84100
O2478       O  0.70068644  0.26371961  0.07219188    -0.68000
O2479       O  0.75483118  0.20115316  0.10904243    -0.87300
C2480       C  0.69555496  0.26284615  0.08937442     0.84900
C2481       C  0.75090071  0.33981873  0.08503849     1.06500
H2482       H  0.73341864  0.23836035  0.10249624     0.38300
O2483       O  0.75508351  0.25258770  0.10110039    -1.10000
O2484       O  0.80780280  0.26816130  0.07930368    -0.66600
Ni2485     Ni  0.76367882  0.24981733  0.07575762     1.26300
O2486       O  0.71696749  0.27520999  0.10119008    -0.66900
O2487       O  0.75919604  0.20969235  0.07815529    -0.79200
C2488       C  0.75176059  0.25215214  0.03892001     0.84300
O2489       O  0.77078990  0.24980027  0.04940434    -0.66300
Ni2490     Ni  0.77314638  0.24149226  0.12005882     1.27400
Ni2491     Ni  0.76087096  0.29295626  0.10011097     1.26100
H2492       H  0.78612197  0.30444997  0.07058300     0.38800
O2493       O  0.73470697  0.47857589  0.04693588    -0.81100
O2494       O  0.72214876  0.48161906  0.12877185    -0.65800
O2495       O  0.71644716  0.49609416  0.07787501    -1.12400
C2496       C  0.81950869  0.07902813  0.09043382     1.05800
O2497       O  0.73430432  0.02911010  0.13526272    -0.79000
O2498       O  0.75367008  0.07319636  0.10892307    -0.66600
Ni2499     Ni  0.69804714  0.46298552  0.06108924     1.34900
C2500       C  0.74710156  0.07603012  0.09234386     0.84500
O2501       O  0.67725875  0.45171218  0.10415847    -0.79600
O2502       O  0.66050142  0.44491026  0.07482309    -0.89800
C2503       C  0.72174155  0.50179364  0.13898395     0.84100
O2504       O  0.70892739  0.43599199  0.07281706    -0.68000
O2505       O  0.80954198  0.07692136  0.10707682    -0.87300
C2506       C  0.72521318  0.43821968  0.08679299     0.84900
C2507       C  0.65675836  0.43698774  0.09184565     1.06500
H2508       H  0.77468800  0.01415588  0.10426236     0.38300
O2509       O  0.76040772  0.02143480  0.10252753    -1.10000
O2510       O  0.74868350  0.06049187  0.07881846    -0.66600
Ni2511     Ni  0.76072687  0.02946181  0.07671748     1.26300
O2512       O  0.73406445  0.45961852  0.09858248    -0.66900
O2513       O  0.80318895  0.06196241  0.07694535    -0.79200
C2514       C  0.75109017  0.00808848  0.04017766     0.84300
O2515       O  0.75933559  0.03227617  0.04987742    -0.66300
Ni2516     Ni  0.77162669  0.05222039  0.12049943     1.27400
Ni2517     Ni  0.71848470  0.48678836  0.10308830     1.26100
H2518       H  0.70574345  0.00638115  0.07792359     0.38800
O2519       O  0.58462284  0.40330691  0.28509047    -0.81100
O2520       O  0.62461766  0.43217214  0.20564682    -0.65800
O2521       O  0.61911881  0.44032530  0.25748894    -1.12400
C2522       C  0.52411248  0.43332480  0.24089516     1.05800
O2523       O  0.61279976  0.46805032  0.20020137    -0.79000
O2524       O  0.58912177  0.48984716  0.22547340    -0.66600
Ni2525     Ni  0.62273755  0.41351734  0.27426643     1.34900
C2526       C  0.59891277  0.49954221  0.24169271     0.84500
O2527       O  0.66095053  0.43621424  0.23374401    -0.79600
O2528       O  0.66041940  0.42143372  0.26339009    -0.89800
C2529       C  0.62806937  0.45488252  0.19621385     0.84100
O2530       O  0.60137703  0.37650482  0.26084685    -0.68000
O2531       O  0.53394792  0.43726908  0.22415878    -0.87300
C2532       C  0.59455232  0.36975946  0.24399293     0.84900
C2533       C  0.67195186  0.42812412  0.24714905     1.06500
H2534       H  0.56727063  0.40954163  0.22924574     0.38300
O2535       O  0.58238946  0.43083504  0.23120724    -1.10000
O2536       O  0.59929791  0.48252479  0.25468149    -0.64800
Ni2537     Ni  0.58005275  0.43831338  0.25694832     1.26300
O2538       O  0.60169633  0.38991730  0.23146623    -0.66900
O2539       O  0.54025970  0.43497328  0.25505034    -0.79200
C2540       C  0.58229745  0.42390104  0.29347623     0.84300
O2541       O  0.58000337  0.44367899  0.28366298    -0.66300
Ni2542     Ni  0.57359418  0.45188970  0.21284276     1.27400
Ni2543     Ni  0.62189604  0.43428311  0.23177000     1.26100
H2544       H  0.63484942  0.46099775  0.26058779     0.38800
O2545       O  0.93076590  0.32173574  0.71731281    -0.81100
O2546       O  0.89602506  0.30932674  0.79612372    -0.65800
O2547       O  0.90048859  0.32933501  0.74539251    -1.12400
C2548       C  0.99846606  0.41062132  0.76320755     1.05800
O2549       O  0.90852072  0.35617008  0.80441376    -0.79000
O2550       O  0.93030532  0.40275980  0.77914942    -0.66600
Ni2551     Ni  0.89094451  0.29852958  0.72735031     1.34900
C2552       C  0.92553252  0.40704848  0.76243072     0.84500
O2553       O  0.85685533  0.28296595  0.76823393    -0.79600
O2554       O  0.85104521  0.27370313  0.73754398    -0.89800
C2555       C  0.89355360  0.32720949  0.80727349     0.84100
O2556       O  0.90536959  0.27468488  0.73922575    -0.68000
O2557       O  0.98607080  0.40669143  0.77923240    -0.87300
C2558       C  0.91662503  0.27583316  0.75504989     0.84900
C2559       C  0.84096658  0.26806261  0.75413887     1.06500
H2560       H  0.95228727  0.34419562  0.77400308     0.38300
O2561       O  0.93823312  0.35164736  0.77189191    -1.10000
O2562       O  0.92857837  0.39261780  0.74879400    -0.66600
Ni2563     Ni  0.94206149  0.36277695  0.74627985     1.26300
O2564       O  0.91543686  0.29183415  0.76817888    -0.66900
O2565       O  0.98395082  0.39534653  0.74879366    -0.79200
C2566       C  0.93770561  0.34656796  0.70937860     0.84300
O2567       O  0.94360256  0.36951116  0.71962131    -0.66300
Ni2568     Ni  0.94700032  0.38062965  0.79088169     1.27400
Ni2569     Ni  0.89768997  0.31768674  0.77057219     1.26100
H2570       H  0.88690424  0.33738941  0.74342916     0.38800
O2571       O  0.76374397  0.24134030  0.95213453    -0.81100
O2572       O  0.79227456  0.25425213  0.87223202    -0.65800
O2573       O  0.79074660  0.27509937  0.92222348    -1.12400
C2574       C  0.69007105  0.25329201  0.90549594     1.05800
O2575       O  0.77880414  0.28810113  0.86412403    -0.79000
O2576       O  0.75301630  0.31137095  0.88705449    -0.66600
Ni2577     Ni  0.80289263  0.25778970  0.94126278     1.34900
C2578       C  0.76144312  0.32378285  0.90287063     0.84500
O2579       O  0.83273888  0.26909394  0.89961965    -0.79600
O2580       O  0.84219898  0.27264571  0.93027007    -0.89800
C2581       C  0.79554970  0.27590091  0.86184874     0.84100
O2582       O  0.78899423  0.21817058  0.93140666    -0.68000
O2583       O  0.69977822  0.25703899  0.88867915    -0.87300
C2584       C  0.77509940  0.20505824  0.91664438     0.84900
C2585       C  0.85017025  0.27292149  0.91346514     1.06500
H2586       H  0.73708756  0.23388796  0.89592665     0.38300
O2587       O  0.75101337  0.25572703  0.89678583    -1.10000
O2588       O  0.76242931  0.30927467  0.91712938    -0.66600
Ni2589     Ni  0.74893366  0.26637417  0.92176267     1.26300
O2590       O  0.77424564  0.21974398  0.90258954    -0.66900
O2591       O  0.70694976  0.25683248  0.91966293    -0.79200
C2592       C  0.75583755  0.25928493  0.95893230     0.84300
O2593       O  0.74879333  0.27464139  0.94798780    -0.66300
Ni2594     Ni  0.73944926  0.27189900  0.87695300     1.27400
Ni2595     Ni  0.79187142  0.26291993  0.89765441     1.26100
H2596       H  0.80416910  0.29703164  0.92290855     0.38800
O2597       O  0.70090571  0.11394843  0.71401768    -0.81100
O2598       O  0.70812690  0.08894679  0.79512152    -0.65800
O2599       O  0.69200575  0.07679388  0.74359778    -1.12400
C2600       C  0.61026296  0.09462166  0.75928568     1.05800
O2601       O  0.65986805  0.05619823  0.80155274    -0.79000
O2602       O  0.61453382  0.03534253  0.77605875    -0.66600
Ni2603     Ni  0.72372270  0.09806764  0.72606035     1.34900
C2604       C  0.61260133  0.02472606  0.75984849     0.84500
O2605       O  0.73592007  0.07752085  0.76781147    -0.79600
O2606       O  0.74892928  0.08417410  0.73762142    -0.89800
C2607       C  0.68835976  0.06763932  0.80516678     0.84100
O2608       O  0.74519482  0.13637541  0.73822006    -0.68000
O2609       O  0.61510362  0.08954874  0.77603277    -0.87300
C2610       C  0.74460216  0.14579341  0.75437169     0.84900
C2611       C  0.75280285  0.07854451  0.75436553     1.06500
H2612       H  0.67668552  0.11388725  0.77115883     0.38300
O2613       O  0.66857382  0.09215583  0.76943729    -1.10000
O2614       O  0.62926864  0.04086689  0.74637331    -0.66600
Ni2615     Ni  0.65831925  0.08442864  0.74377091     1.26300
O2616       O  0.72909513  0.12803973  0.76748062    -0.66900
O2617       O  0.62486222  0.09272286  0.74528795    -0.79200
C2618       C  0.67499257  0.09646900  0.70689885     0.84300
O2619       O  0.65253824  0.07892072  0.71728147    -0.66300
Ni2620     Ni  0.63856141  0.07364815  0.78802271     1.27400
Ni2621     Ni  0.70186749  0.08439403  0.76914709     1.26100
H2622       H  0.68407982  0.05518351  0.74145721     0.38800
O2623       O  0.78204619  0.02531966  0.95304783    -0.81100
O2624       O  0.75320399  0.03841795  0.87403636    -0.65800
O2625       O  0.74321983  0.01902977  0.92538333    -1.12400
C2626       C  0.75874947  0.43659731  0.90492836     1.05800
O2627       O  0.72137633  0.48969912  0.86476731    -0.79000
O2628       O  0.69929113  0.44301226  0.88942494    -0.66600
Ni2629     Ni  0.76624210  0.04954264  0.94335120     1.34900
C2630       C  0.68963681  0.44021579  0.90591911     0.84500
O2631       O  0.74302530  0.06466333  0.90335665    -0.79600
O2632       O  0.75193515  0.07541271  0.93379758    -0.89800
C2633       C  0.73271197  0.01897581  0.86334676     0.84100
O2634       O  0.80392601  0.07208812  0.93062717    -0.68000
O2635       O  0.75216622  0.44169999  0.88861594    -0.87300
C2636       C  0.81215727  0.07297308  0.91399978     0.84900
C2637       C  0.74521772  0.08067588  0.91764171     1.06500
H2638       H  0.77854963  0.00502287  0.89576947     0.38300
O2639       O  0.75778032  0.49578220  0.89626646    -1.10000
O2640       O  0.70669340  0.45593635  0.91939507    -0.66600
Ni2641     Ni  0.75026925  0.48476163  0.92184506     1.26300
O2642       O  0.79353582  0.05792907  0.90106068    -0.66900
O2643       O  0.75840815  0.45123937  0.91940333    -0.79200
C2644       C  0.76337189  0.00041794  0.96067883     0.84300
O2645       O  0.74460610  0.47794502  0.94839519    -0.66300
Ni2646     Ni  0.73754468  0.46658633  0.87741592     1.27400
Ni2647     Ni  0.74966686  0.03052505  0.90001460     1.26100
H2648       H  0.72180130  0.01116805  0.92810192     0.38800
O2649       O  0.98779055  0.25565379  0.95413841    -0.81100
O2650       O  0.98243392  0.22528231  0.87385052    -0.65800
O2651       O  0.99692798  0.22680705  0.92533486    -1.12400
C2652       C  0.57888590  0.32466172  0.91001943     1.05800
O2653       O  0.52782840  0.23522904  0.86902290    -0.79000
O2654       O  0.57374705  0.25994987  0.89390588    -0.66600
Ni2655     Ni  0.96482550  0.21681627  0.94244149     1.34900
C2656       C  0.57609813  0.25195849  0.91020346     0.84500
O2657       O  0.95250478  0.18473576  0.90061414    -0.79600
O2658       O  0.93984024  0.17777503  0.93090711    -0.89800
C2659       C  0.00201699  0.22317251  0.86402633     0.84100
O2660       O  0.94322195  0.23336890  0.93004872    -0.68000
O2661       O  0.57393176  0.31376899  0.89350361    -0.87300
C2662       C  0.94452117  0.24377752  0.91393433     0.84900
C2663       C  0.93553001  0.16872200  0.91406671     1.06500
H2664       H  0.51310425  0.27816842  0.89876237     0.38300
O2665       O  0.52051025  0.26401978  0.90062062    -1.10000
O2666       O  0.55973344  0.25197262  0.92379098    -0.66600
Ni2667     Ni  0.53080968  0.26699152  0.92627470     1.26300
O2668       O  0.96111272  0.24257093  0.90119684    -0.66900
O2669       O  0.56468744  0.30876471  0.92434766    -0.79200
C2670       C  0.51313878  0.26338044  0.96284158     0.84300
O2671       O  0.53605135  0.26771729  0.95302152    -0.66300
Ni2672     Ni  0.54997158  0.27431204  0.88193064     1.27400
Ni2673     Ni  0.98766956  0.22553635  0.89976502     1.26100
H2674       H  0.50343882  0.21174390  0.92893408     0.38800
O2675       O  0.90497672  0.09029132  0.71792811    -0.81100
O2676       O  0.93294460  0.12450953  0.79825733    -0.65800
O2677       O  0.94356496  0.12032313  0.74651958    -1.12400
C2678       C  0.93271226  0.02367221  0.76218150     1.05800
O2679       O  0.96869000  0.11246871  0.80397233    -0.79000
O2680       O  0.99168542  0.09184372  0.77764545    -0.66600
Ni2681     Ni  0.92109137  0.12942882  0.72924252     1.34900
C2682       C  0.99990038  0.09875235  0.76090658     0.84500
O2683       O  0.94210331  0.16334084  0.77060779    -0.79600
O2684       O  0.93568939  0.16875921  0.74022078    -0.89800
C2685       C  0.95485140  0.12702582  0.80811523     0.84100
O2686       O  0.88355907  0.11338998  0.74216274    -0.68000
O2687       O  0.94037085  0.03492860  0.77855560    -0.87300
C2688       C  0.87458848  0.10322955  0.75834010     0.84900
C2689       C  0.94134573  0.17888182  0.75683193     1.06500
H2690       H  0.91004250  0.06802760  0.77511018     0.38300
O2691       O  0.93135159  0.08250137  0.77261624    -1.10000
O2692       O  0.98139839  0.09572624  0.74789592    -0.66600
Ni2693     Ni  0.93741992  0.07957372  0.74662919     1.26300
O2694       O  0.89263839  0.10476751  0.77113716    -0.66900
O2695       O  0.93086763  0.03851587  0.74829297    -0.79200
C2696       C  0.92286386  0.08343565  0.70981952     0.84300
O2697       O  0.94099268  0.07865037  0.71978928    -0.66300
Ni2698     Ni  0.95369560  0.07403166  0.79044089     1.27400
Ni2699     Ni  0.93676768  0.12278653  0.77218170     1.26100
H2700       H  0.96495941  0.13457970  0.74413235     0.38800
C2701       C  0.99081136  0.19886372  0.84940520    -0.00400
C2702       C  0.95909946  0.17755888  0.84847503    -0.12300
C2703       C  0.94704212  0.15342207  0.83566411     0.01800
C2704       C  0.96669747  0.14998771  0.82329267    -0.00500
C2705       C  0.99833271  0.17070715  0.82435996    -0.12200
C2706       C  0.50784458  0.19095796  0.83860313     0.01700
H2707       H  0.94342677  0.17944330  0.85793057     0.14700
H2708       H  0.51118785  0.16440418  0.81639621     0.14700
C2709       C  0.54054160  0.21182884  0.83834455     0.36400
C2710       C  0.91447310  0.13199662  0.83589679     0.36300
N2711       N  0.56672555  0.22862120  0.83797332    -0.44000
N2712       N  0.88837296  0.11485319  0.83625580    -0.44000
C2713       C  0.60306641  0.35759853  0.91187359    -0.00400
C2714       C  0.60876615  0.37650707  0.89632929    -0.12300
C2715       C  0.63538552  0.40508349  0.89492780     0.01800
C2716       C  0.65743441  0.41555516  0.90931482    -0.00500
C2717       C  0.65001108  0.39851592  0.92585224    -0.12200
C2718       C  0.62294701  0.36982890  0.92731612     0.01700
H2719       H  0.59303191  0.36823470  0.88467461     0.14700
H2720       H  0.66637672  0.40647157  0.93715783     0.14700
C2721       C  0.61719250  0.35305542  0.94442826     0.36400
C2722       C  0.64006148  0.42232961  0.87804778     0.36300
N2723       N  0.61261010  0.34011949  0.95835771    -0.44000
N2724       N  0.64377981  0.43591197  0.86444405    -0.44000
C2725       C  0.90742226  0.13920626  0.91013499    -0.00400
C2726       C  0.88740781  0.13844212  0.89627091    -0.12300
C2727       C  0.85633896  0.11551403  0.89624005     0.01800
C2728       C  0.84521190  0.09272688  0.91011002    -0.00500
C2729       C  0.86602726  0.09164462  0.92259313    -0.12200
C2730       C  0.89688783  0.11452250  0.92268095     0.01700
H2731       H  0.89526579  0.15735745  0.88659110     0.14700
H2732       H  0.85775489  0.07377571  0.93304005     0.14700
C2733       C  0.91696924  0.11303386  0.93641148     0.36400
C2734       C  0.83586745  0.11791058  0.88323435     0.36300
N2735       N  0.93306343  0.11182696  0.94740125    -0.44000
N2736       N  0.81947585  0.11995578  0.87285397    -0.44000
C2737       C  0.53052615  0.10456905  0.75778154    -0.00400
C2738       C  0.53653290  0.09077098  0.74271281    -0.12300
C2739       C  0.56385297  0.08970991  0.74184458     0.01800
C2740       C  0.58548862  0.10219321  0.75645523    -0.00500
C2741       C  0.58094195  0.11914043  0.77027096    -0.12200
C2742       C  0.55405801  0.12079503  0.77086998     0.01700
H2743       H  0.51890604  0.07873067  0.73234339     0.14700
H2744       H  0.59792685  0.13010354  0.78113161     0.14700
C2745       C  0.55091949  0.13883008  0.78530011     0.36400
C2746       C  0.56785780  0.07392224  0.72642517     0.36300
N2747       N  0.54880186  0.15367328  0.79677548    -0.44000
N2748       N  0.57075010  0.06161044  0.71373247    -0.44000
C2749       C  0.78016971  0.07599021  0.75853334    -0.00400
C2750       C  0.79805054  0.09171567  0.77408134    -0.12300
C2751       C  0.82857773  0.09849744  0.77558961     0.01800
C2752       C  0.84125002  0.08885241  0.76151238    -0.00500
C2753       C  0.82200883  0.06960608  0.74741326    -0.12200
C2754       C  0.79185496  0.06338477  0.74568291     0.01700
H2755       H  0.78922192  0.10133143  0.78414111     0.14700
H2756       H  0.83139912  0.06146044  0.73677426     0.14700
C2757       C  0.77418028  0.04560450  0.72994187     0.36400
C2758       C  0.84689618  0.11795494  0.79059751     0.36300
N2759       N  0.76031822  0.03144166  0.71722064    -0.44000
N2760       N  0.86091584  0.13353606  0.80282711    -0.44000
C2761       C  0.72167915  0.03012851  0.84768050    -0.00400
C2762       C  0.69012482  0.01899292  0.84578334    -0.12300
C2763       C  0.67865942  0.03080160  0.83231327     0.01800
C2764       C  0.69902473  0.05449772  0.82021076    -0.00500
C2765       C  0.73067833  0.06498779  0.82191078    -0.12200
C2766       C  0.74200059  0.05303035  0.83535909     0.01700
H2767       H  0.67432779  0.00147909  0.85523110     0.14700
H2768       H  0.74683403  0.08248985  0.81258311     0.14700
C2769       C  0.77450245  0.06391240  0.83582558     0.36400
C2770       C  0.64587940  0.01810446  0.83148163     0.36300
N2771       N  0.80051259  0.07245394  0.83606620    -0.44000
N2772       N  0.61958308  0.00781442  0.83082575    -0.44000
C2773       C  0.92565318  0.25796966  0.91034925    -0.00400
C2774       C  0.92572946  0.27805555  0.92379409    -0.12300
C2775       C  0.90337113  0.28661126  0.92376847     0.01800
C2776       C  0.87990184  0.27440381  0.91024390    -0.00500
C2777       C  0.88212454  0.25734872  0.89547473    -0.12200
C2778       C  0.90483668  0.24904455  0.89542797     0.01700
H2779       H  0.94242243  0.28581313  0.93495316     0.14700
H2780       H  0.86451930  0.24809454  0.88485060     0.14700
C2781       C  0.90436533  0.22900173  0.88096657     0.36400
C2782       C  0.90424094  0.30665442  0.93836109     0.36300
N2783       N  0.90396267  0.21301156  0.86932430    -0.44000
N2784       N  0.90500297  0.32267074  0.95009578    -0.44000
C2785       C  0.65783472  0.24604833  0.90877584    -0.00400
C2786       C  0.65107700  0.25753264  0.92479784    -0.12300
C2787       C  0.62283822  0.25657422  0.92681306     0.01800
C2788       C  0.60061719  0.24390557  0.91260778    -0.00500
C2789       C  0.60613800  0.22940671  0.89763945    -0.12200
C2790       C  0.63424111  0.23035586  0.89559128     0.01700
H2791       H  0.66863360  0.26914317  0.93526483     0.14700
H2792       H  0.58903914  0.21894581  0.88678006     0.14700
C2793       C  0.63827945  0.21558577  0.87956274     0.36400
C2794       C  0.61838619  0.27081463  0.94290783     0.36300
N2795       N  0.64125121  0.20363092  0.86669001    -0.44000
N2796       N  0.61505696  0.28203231  0.95601046    -0.44000
C2797       C  0.74270776  0.10868985  0.91569984    -0.00400
C2798       C  0.74049009  0.12260012  0.93204171    -0.12300
C2799       C  0.74883660  0.15345137  0.93237468     0.01800
C2800       C  0.75980673  0.17120955  0.91603976    -0.00500
C2801       C  0.75751506  0.15629868  0.89919705    -0.12200
C2802       C  0.74868264  0.12511954  0.89885291     0.01700
H2803       H  0.73412261  0.10988621  0.94496043     0.14700
H2804       H  0.76427943  0.16934108  0.88640773     0.14700
C2805       C  0.74730133  0.11128373  0.88113111     0.36400
C2806       C  0.74648299  0.16619621  0.94984079     0.36300
N2807       N  0.74586141  0.10034825  0.86680587    -0.44000
N2808       N  0.74443569  0.17606447  0.96390364    -0.44000
C2809       C  0.76631257  0.41152648  0.90639844    -0.00400
C2810       C  0.77476346  0.40265266  0.89001054    -0.12300
C2811       C  0.77533535  0.37534633  0.88882499     0.01800
C2812       C  0.76829354  0.35614994  0.90457916    -0.00500
C2813       C  0.76324957  0.36666244  0.92157500    -0.12200
C2814       C  0.76204834  0.39397881  0.92260842     0.01700
H2815       H  0.77931036  0.41631756  0.87755216     0.14700
H2816       H  0.75806590  0.35248097  0.93384048     0.14700
C2817       C  0.75455906  0.40221051  0.94018580     0.36400
C2818       C  0.78122901  0.36708109  0.87074260     0.36300
N2819       N  0.74866781  0.40877164  0.95433396    -0.44000
N2820       N  0.78540623  0.36068111  0.85606205    -0.44000
C2821       C  0.53144497  0.43559290  0.76132301    -0.00400
C2822       C  0.54332770  0.45032689  0.74423085    -0.12300
C2823       C  0.57207732  0.47737089  0.74326301     0.01800
C2824       C  0.58895477  0.49035270  0.75969710    -0.00500
C2825       C  0.57895225  0.47322055  0.77613002    -0.12200
C2826       C  0.55069888  0.44625796  0.77712091     0.01700
H2827       H  0.52952791  0.44172852  0.73177844     0.14700
H2828       H  0.59658274  0.98009092  0.78456333     0.14700
C2829       C  0.54187236  0.43088810  0.79484273     0.36400
C2830       C  0.58302143  0.49174529  0.72545446     0.36300
N2831       N  0.03470632  0.42076505  0.80983239    -0.44000
N2832       N  0.59199144  0.50303603  0.71113192    -0.44000
C2833       C  0.81019174  0.24091314  0.75696986    -0.00400
C2834       C  0.80451350  0.22312332  0.77308757    -0.12300
C2835       C  0.78084347  0.19239533  0.77350514     0.01800
C2836       C  0.76314899  0.17920464  0.75740812    -0.00500
C2837       C  0.76589798  0.19830546  0.74251112    -0.12200
C2838       C  0.78878512  0.22903203  0.74229833     0.01700
H2839       H  0.81998834  0.23232626  0.78477861     0.14700
H2840       H  0.75105367  0.18876890  0.73051561     0.14700
C2841       C  0.79052907  0.24738476  0.72646197     0.36400
C2842       C  0.77664875  0.17456740  0.79003063     0.36300
N2843       N  0.79180456  0.26204108  0.71378563    -0.44000
N2844       N  0.77297337  0.16036009  0.80335835    -0.44000
C2845       C  0.91873216  0.43219412  0.75902589    -0.00400
C2846       C  0.93311429  0.45239903  0.74412948    -0.12300
C2847       C  0.93507659  0.48124639  0.74353507     0.01800
C2848       C  0.92253567  0.49028255  0.75809283    -0.00500
C2849       C  0.90568201  0.46891385  0.77196372    -0.12200
C2850       C  0.90342833  0.44008003  0.77245735     0.01700
H2851       H  0.94497021  0.44674027  0.73370908     0.14700
H2852       H  0.89524671  0.47527342  0.78293714     0.14700
C2853       C  0.88618257  0.41944487  0.78734510     0.36400
C2854       C  0.95226743  0.00253442  0.72904845     0.36300
N2855       N  0.87239086  0.40291517  0.79927488    -0.44000
N2856       N  0.96501114  0.01886941  0.71684544    -0.44000
C2857       C  0.94503979  0.20963819  0.75975458    -0.00400
C2858       C  0.95442285  0.22955372  0.74450472    -0.12300
C2859       C  0.94796651  0.25331715  0.74357430     0.01800
C2860       C  0.93129750  0.25716257  0.75798145    -0.00500
C2861       C  0.92622948  0.24050831  0.77446392    -0.12200
C2862       C  0.93351447  0.21707428  0.77557536     0.01700
H2863       H  0.96502390  0.22528092  0.73267596     0.14700
H2864       H  0.91488214  0.24444366  0.78600779     0.14700
C2865       C  0.92777485  0.20044167  0.79273812     0.36400
C2866       C  0.95805642  0.27287866  0.72742564     0.36300
N2867       N  0.92382294  0.18768539  0.80668155    -0.44000
N2868       N  0.96648123  0.28854987  0.71450087    -0.44000
C2869       C  0.82147980  0.28932337  0.84851358    -0.00400
C2870       C  0.82832193  0.26983555  0.83834566    -0.12300
C2871       C  0.85289465  0.28161954  0.82583358     0.01800
C2872       C  0.87059334  0.31377049  0.82262934    -0.00500
C2873       C  0.86487532  0.33323660  0.83377413    -0.12200
C2874       C  0.84128886  0.32133588  0.84698379     0.01700
H2875       H  0.81448825  0.24522406  0.84027113     0.14700
H2876       H  0.87908877  0.35789832  0.83237234     0.14700
C2877       C  0.84009688  0.34228217  0.86012392     0.36400
C2878       C  0.85973489  0.25998879  0.81703956     0.36300
N2879       N  0.84003827  0.35906990  0.87103363    -0.44000
N2880       N  0.86542798  0.24268425  0.81017799    -0.44000
C2881       C  0.76047566  0.00032541  0.98125518    -0.00400
C2882       C  0.78472560  0.02403261  0.99151134    -0.12300
C2883       C  0.78201852  0.02796792  0.01054971     0.01800
C2884       C  0.75452265  0.00816807  0.01975837    -0.00500
C2885       C  0.73046451  0.98428627  0.00962698    -0.12200
C2886       C  0.73316659  0.98016512  0.99064938     0.01700
H2887       H  0.80603548  0.03970471  0.98461844     0.14700
H2888       H  0.70933390  0.96851298  0.01666890     0.14700
C2889       C  0.70915438  0.44906599  0.97991055     0.36400
C2890       C  0.80830273  0.05118024  0.02049511     0.36300
N2891       N  0.69007983  0.42756489  0.97249665    -0.44000
N2892       N  0.82950121  0.06955395  0.02849143    -0.44000
C2893       C  0.65211819  0.46759726  0.18144365    -0.00400
C2894       C  0.67407903  0.45807062  0.18086613    -0.12300
C2895       C  0.69776796  0.46990879  0.16773409     0.01800
C2896       C  0.69983803  0.49159324  0.15464466    -0.00500
C2897       C  0.67841441  0.50155068  0.15531460    -0.12200
C2898       C  0.65480838  0.48997685  0.16848802     0.01700
H2899       H  0.67314835  0.44162420  0.19090994     0.14700
H2900       H  0.68079217  0.02013073  0.14706265     0.14700
C2901       C  0.63256153  0.00199592  0.16823110     0.36400
C2902       C  0.72049769  0.46052250  0.16851570     0.36300
N2903       N  0.61695701  0.01273932  0.16821319    -0.44000
N2904       N  0.73889183  0.45324891  0.16934668    -0.44000
C2905       C  0.75634153  0.26162336  0.97933800    -0.00400
C2906       C  0.77861082  0.25781379  0.98891811    -0.12300
C2907       C  0.77816516  0.25513010  0.00822035     0.01800
C2908       C  0.75451687  0.25544254  0.01839965    -0.00500
C2909       C  0.73294854  0.26052813  0.00876198    -0.12200
C2910       C  0.73391187  0.26396183  0.98948069     0.01700
H2911       H  0.79643486  0.25660344  0.98120453     0.14700
H2912       H  0.71498540  0.26176350  0.01626307     0.14700
C2913       C  0.71103757  0.26870052  0.98046103     0.36400
C2914       C  0.80240821  0.25241382  0.01703405     0.36300
N2915       N  0.69281732  0.27269514  0.97325463    -0.44000
N2916       N  0.82210293  0.25059263  0.02402376    -0.44000
C2917       C  0.74415970  0.36463940  0.08845317    -0.00400
C2918       C  0.76686282  0.39361322  0.09476792    -0.12300
C2919       C  0.76108836  0.41818692  0.09531976     0.01800
C2920       C  0.73228441  0.41349672  0.08944754    -0.00500
C2921       C  0.70913131  0.38401958  0.08466193    -0.12200
C2922       C  0.71464829  0.35975453  0.08414503     0.01700
H2923       H  0.78936251  0.39737378  0.09840258     0.14700
H2924       H  0.68656474  0.38000754  0.08084385     0.14700
C2925       C  0.68935158  0.33021638  0.07873055     0.36400
C2926       C  0.78536505  0.44805025  0.10098090     0.36300
N2927       N  0.66869938  0.30702372  0.07415374    -0.44000
N2928       N  0.80480048  0.47196896  0.10560308    -0.44000
C2929       C  0.74613695  0.15995668  0.08923450    -0.00400
C2930       C  0.72789300  0.13785355  0.10243603    -0.12300
C2931       C  0.72484049  0.10870704  0.10242820     0.01800
C2932       C  0.74021479  0.10100182  0.08896617    -0.00500
C2933       C  0.75566329  0.12182534  0.07456535    -0.12200
C2934       C  0.75894188  0.15120428  0.07463085     0.01700
H2935       H  0.71707002  0.14381942  0.11337308     0.14700
H2936       H  0.76764976  0.11625727  0.06419383     0.14700
C2937       C  0.77805082  0.17263875  0.06056882     0.36400
C2938       C  0.70698863  0.08770794  0.11700429     0.36300
N2939       N  0.79345207  0.18978963  0.04931027    -0.44000
N2940       N  0.69265108  0.07115953  0.12878509    -0.44000
C2941       C  0.99054840  0.42313001  0.24442510    -0.00400
C2942       C  0.96955423  0.40600165  0.23041361    -0.12300
C2943       C  0.94026441  0.40254108  0.22996163     0.01800
C2944       C  0.93160212  0.41697437  0.24354580    -0.00500
C2945       C  0.95134479  0.43131852  0.25864059    -0.12200
C2946       C  0.98062468  0.43440477  0.25922934     0.01700
H2947       H  0.97646656  0.39618460  0.21935291     0.14700
H2948       H  0.94496055  0.44234250  0.26922909     0.14700
C2949       C  0.50542181  0.46051498  0.27134461     0.36400
C2950       C  0.91994051  0.38487183  0.21502251     0.36300
N2951       N  0.52267109  0.47649373  0.28241425    -0.44000
N2952       N  0.90374728  0.37062829  0.20305071    -0.44000
C2953       C  0.74358280  0.40664041  0.24360093    -0.00400
C2954       C  0.74922558  0.43509913  0.23659364    -0.12300
C2955       C  0.72588343  0.44271085  0.23659799     0.01800
C2956       C  0.69682595  0.42158062  0.24374578    -0.00500
C2957       C  0.69078555  0.39241891  0.24919999    -0.12200
C2958       C  0.71362676  0.38475852  0.24917041     0.01700
H2959       H  0.77209333  0.45184340  0.23202510     0.14700
H2960       H  0.66805120  0.37564896  0.25404858     0.14700
C2961       C  0.70557250  0.35432009  0.25530927     0.36400
C2962       C  0.73259863  0.47256326  0.23022557     0.36300
N2963       N  0.69878927  0.32996452  0.26040556    -0.44000
N2964       N  0.73796168  0.49648641  0.22506202    -0.44000
C2965       C  0.79369297  0.32115838  0.15136106    -0.00400
C2966       C  0.77704162  0.33546282  0.15671303    -0.12300
C2967       C  0.78804183  0.35840934  0.17026448     0.01800
C2968       C  0.81682875  0.36825685  0.17869347    -0.00500
C2969       C  0.83358642  0.35408101  0.17341203    -0.12200
C2970       C  0.82219443  0.33046941  0.16016091     0.01700
H2971       H  0.75508236  0.32868113  0.15031153     0.14700
H2972       H  0.85533930  0.36083572  0.18006873     0.14700
C2973       C  0.84031192  0.31629303  0.15611555     0.36400
C2974       C  0.76925961  0.37158511  0.17502342     0.36300
N2975       N  0.85480856  0.30484551  0.15304595    -0.44000
N2976       N  0.75407168  0.38195629  0.17888107    -0.44000
C2977       C  0.60108447  0.08538724  0.24619571    -0.00400
C2978       C  0.61964434  0.08139880  0.23323642    -0.12300
C2979       C  0.62126498  0.05446093  0.23282508     0.01800
C2980       C  0.60411655  0.03072020  0.24556605    -0.00500
C2981       C  0.58909245  0.03639296  0.26007651    -0.12200
C2982       C  0.58721818  0.06331870  0.26044472     0.01700
H2983       H  0.63144562  0.09859471  0.22261577     0.14700
H2984       H  0.57636936  0.01854691  0.27016256     0.14700
C2985       C  0.56839545  0.06594678  0.27451657     0.36400
C2986       C  0.63967384  0.05113118  0.21870771     0.36300
N2987       N  0.55325441  0.06756826  0.28597640    -0.44000
N2988       N  0.65455754  0.04849448  0.20747946    -0.44000
C2989       C  0.57918667  0.33673725  0.23918284    -0.00400
C2990       C  0.58763672  0.32724915  0.22302348    -0.12300
C2991       C  0.58220762  0.29709694  0.22145337     0.01800
C2992       C  0.56906565  0.27663444  0.23648765    -0.00500
C2993       C  0.55586977  0.28469173  0.25093545    -0.12200
C2994       C  0.56056698  0.31432332  0.25233883     0.01700
H2995       H  0.60070700  0.34389739  0.21237149     0.14700
H2996       H  0.54418248  0.26857151  0.26210223     0.14700
C2997       C  0.54796975  0.32165874  0.26821259     0.36400
C2998       C  0.59176677  0.28849252  0.20481687     0.36300
N2999       N  0.53799152  0.32755315  0.28096340    -0.44000
N3000       N  0.59885369  0.28184394  0.19112928    -0.44000
C3001       C  0.98895668  0.08773087  0.24012076    -0.00400
C3002       C  0.97134947  0.07865145  0.22376716    -0.12300
C3003       C  0.94392611  0.05069719  0.22253932     0.01800
C3004       C  0.93338234  0.03059561  0.23791328    -0.00500
C3005       C  0.94872415  0.04146530  0.25500060    -0.12200
C3006       C  0.97613293  0.06999464  0.25625606     0.01700
H3007       H  0.97999508  0.09275583  0.21143143     0.14700
H3008       H  0.94027861  0.02701677  0.26718895     0.14700
C3009       C  0.49208428  0.07709029  0.27476229     0.36400
C3010       C  0.92756714  0.04315764  0.20511090     0.36300
N3011       N  0.50429075  0.08554861  0.28891516    -0.44000
N3012       N  0.91452242  0.03724325  0.19114072    -0.44000
C3013       C  0.67705767  0.25996296  0.23990052    -0.00400
C3014       C  0.69581249  0.25793522  0.25357106    -0.12300
C3015       C  0.72733870  0.27884613  0.25416188     0.01800
C3016       C  0.74067866  0.30276620  0.24099184    -0.00500
C3017       C  0.72260536  0.30215154  0.22590085    -0.12200
C3018       C  0.69097335  0.28117172  0.22534103     0.01700
H3019       H  0.68547230  0.24094903  0.26447506     0.14700
H3020       H  0.73240237  0.32011051  0.21552262     0.14700
C3021       C  0.67309676  0.28448269  0.21089802     0.36400
C3022       C  0.74504750  0.27619280  0.26903692     0.36300
N3023       N  0.65923410  0.28768730  0.19922344    -0.44000
N3024       N  0.75919739  0.27404979  0.28097845    -0.44000
C3025       C  0.51310684  0.26453295  0.98337222    -0.00400
C3026       C  0.99203041  0.27171970  0.99142828    -0.12300
C3027       C  0.98714618  0.26912653  0.01063924     0.01800
C3028       C  0.50181057  0.25829926  0.02201978    -0.00500
C3029       C  0.51885780  0.24648789  0.01356512    -0.12200
C3030       C  0.52414412  0.24903087  0.99437083     0.01700
H3031       H  0.97956189  0.27966394  0.98300751     0.14700
H3032       H  0.52808741  0.23522191  0.02203461     0.14700
C3033       C  0.53900854  0.23377828  0.98614996     0.36400
C3034       C  0.96646583  0.27789533  0.01868859     0.36300
N3035       N  0.55056699  0.22126465  0.97947134    -0.44000
N3036       N  0.94987482  0.28483594  0.02522345    -0.44000
C3037       C  0.60317650  0.23911444  0.09616277    -0.00400
C3038       C  0.62395560  0.25601971  0.11031654    -0.12300
C3039       C  0.65393680  0.26097179  0.10999849     0.01800
C3040       C  0.66310230  0.24889112  0.09520753    -0.00500
C3041       C  0.64059746  0.22776207  0.08307315    -0.12200
C3042       C  0.61082031  0.22284143  0.08344024     0.01700
H3043       H  0.61787736  0.26797458  0.12044291     0.14700
H3044       H  0.64694338  0.21719371  0.07216919     0.14700
C3045       C  0.58907074  0.20278597  0.06973850     0.36400
C3046       C  0.67544529  0.28128544  0.12369504     0.36300
N3047       N  0.57149513  0.18677808  0.05881355    -0.44000
N3048       N  0.69268491  0.29749927  0.13469405    -0.44000
C3049       C  0.85018407  0.26125457  0.08800913    -0.00400
C3050       C  0.84823897  0.23289471  0.09117693    -0.12300
C3051       C  0.87434820  0.23030304  0.09272039     0.01800
C3052       C  0.90361305  0.25614972  0.08991672    -0.00500
C3053       C  0.90579063  0.28443601  0.08545940    -0.12200
C3054       C  0.87924392  0.28728506  0.08489382     0.01700
H3055       H  0.82601549  0.21280327  0.09382837     0.14700
H3056       H  0.92820732  0.30456255  0.08360239     0.14700
C3057       C  0.88248281  0.31718512  0.08260572     0.36400
C3058       C  0.87027540  0.20112025  0.09864639     0.36300
N3059       N  0.88508058  0.34120756  0.08090616    -0.44000
N3060       N  0.86639648  0.17777308  0.10392763    -0.44000
C3061       C  0.62883413  0.40727775  0.09669960    -0.00400
C3062       C  0.60309652  0.39619351  0.08500382    -0.12300
C3063       C  0.58080850  0.36499272  0.08465846     0.01800
C3064       C  0.58391690  0.34408133  0.09615408    -0.00500
C3065       C  0.60744905  0.35544085  0.10939050    -0.12200
C3066       C  0.62983332  0.38676296  0.10982557     0.01700
H3067       H  0.60144725  0.41156606  0.07516143     0.14700
H3068       H  0.60978056  0.33949538  0.11839889     0.14700
C3069       C  0.65501262  0.39632352  0.12266426     0.36400
C3070       C  0.55549884  0.35465539  0.07183118     0.36300
N3071       N  0.67511928  0.40386723  0.13299310    -0.44000
N3072       N  0.53509345  0.34632179  0.06165219    -0.44000
C3073       C  0.91185340  0.15516951  0.08827160    -0.00400
C3074       C  0.89140730  0.15118218  0.07378681    -0.12300
C3075       C  0.86162733  0.12533885  0.07326208     0.01800
C3076       C  0.85215639  0.10276580  0.08727330    -0.00500
C3077       C  0.87382978  0.10518354  0.10039525    -0.12200
C3078       C  0.90338279  0.13081546  0.10092084     0.01700
H3079       H  0.89744085  0.16969336  0.06401430     0.14700
H3080       H  0.86712379  0.08759414  0.11091973     0.14700
C3081       C  0.92416276  0.13218303  0.11517283     0.36400
C3082       C  0.84039208  0.12435292  0.05947593     0.36300
N3083       N  0.94078148  0.13313508  0.12656867    -0.44000
N3084       N  0.82354100  0.12381283  0.04837743    -0.44000
C3085       C  0.55126459  0.19131097  0.17790958    -0.00400
C3086       C  0.51918727  0.17672112  0.17647706    -0.12300
C3087       C  0.50497811  0.18809306  0.16465499     0.01800
C3088       C  0.52305531  0.21480690  0.15393082    -0.00500
C3089       C  0.55523620  0.22860917  0.15506177    -0.12200
C3090       C  0.56927207  0.21701874  0.16666228     0.01700
H3091       H  0.50510711  0.15697045  0.18512569     0.14700
H3092       H  0.56980427  0.24850146  0.14665423     0.14700
C3093       C  0.60229759  0.23145692  0.16634810     0.36400
C3094       C  0.97351942  0.17901683  0.16626205     0.36300
N3095       N  0.62873356  0.24292688  0.16601449    -0.44000
N3096       N  0.94706150  0.16730205  0.16668944    -0.44000
C3097       C  0.92726616  0.33992619  0.64967387    -0.00400
C3098       C  0.93395084  0.36737727  0.65881580    -0.12300
C3099       C  0.93839843  0.37077941  0.67805784     0.01800
C3100       C  0.93604276  0.34624350  0.68869850    -0.00500
C3101       C  0.92961129  0.31886830  0.67939764    -0.12200
C3102       C  0.92532894  0.31559826  0.66016689     0.01700
H3103       H  0.93592459  0.38650663  0.65081039     0.14700
H3104       H  0.92794812  0.29966628  0.68714350     0.14700
C3105       C  0.92079436  0.28782005  0.65146931     0.36400
C3106       C  0.94538710  0.39965202  0.68634206     0.36300
N3107       N  0.91742147  0.26567078  0.64447588    -0.44000
N3108       N  0.95110265  0.42288168  0.69290770    -0.44000
C3109       C  0.83870691  0.42832199  0.35291897    -0.00400
C3110       C  0.86486749  0.43191028  0.34354835    -0.12300
C3111       C  0.86698405  0.43345886  0.32415419     0.01800
C3112       C  0.84242658  0.43126805  0.31357522    -0.00500
C3113       C  0.81653784  0.42836557  0.32305361    -0.12200
C3114       C  0.81459762  0.42706197  0.34246319     0.01700
H3115       H  0.88383758  0.43331277  0.35146519     0.14700
H3116       H  0.79754725  0.42714277  0.31527130     0.14700
C3117       C  0.78853426  0.42624453  0.35129427     0.36400
C3118       C  0.89426929  0.43652666  0.31560692     0.36300
N3119       N  0.76781503  0.42597371  0.35836405    -0.44000
N3120       N  0.91619109  0.43906661  0.30878947    -0.44000
C3121       C  0.86004389  0.37906261  0.48601860    -0.00400
C3122       C  0.89160996  0.39404875  0.49020015    -0.12300
C3123       C  0.90352272  0.38253369  0.50346412     0.01800
C3124       C  0.88381522  0.35562076  0.51343319    -0.00500
C3125       C  0.85251456  0.33975859  0.50879311    -0.12200
C3126       C  0.84050339  0.35107147  0.49527872     0.01700
H3127       H  0.90739505  0.41495892  0.48297443     0.14700
H3128       H  0.83718897  0.31881221  0.51606626     0.14700
C3129       C  0.80817850  0.33310459  0.49115949     0.36400
C3130       C  0.93636802  0.39822751  0.50600347     0.36300
N3131       N  0.78226201  0.31848032  0.48789678    -0.44000
N3132       N  0.96269958  0.41075727  0.50792551    -0.44000
C3133       C  0.68050763  0.09428986  0.64788893    -0.00400
C3134       C  0.69205561  0.12245692  0.65697659    -0.12300
C3135       C  0.68824519  0.12355845  0.67613136     0.01800
C3136       C  0.67291678  0.09606299  0.68650958    -0.00500
C3137       C  0.66071458  0.06789567  0.67730142    -0.12200
C3138       C  0.66413141  0.06682800  0.65811657     0.01700
H3139       H  0.70293816  0.14352883  0.64899643     0.14700
H3140       H  0.64929699  0.04672480  0.68516496     0.14700
C3141       C  0.65022529  0.03723710  0.64912126     0.36400
C3142       C  0.69905365  0.15313120  0.68471108     0.36300
N3143       N  0.63892633  0.01353334  0.64191293    -0.44000
N3144       N  0.70744305  0.17684640  0.69148890    -0.44000
C3145       C  0.50780114  0.42581380  0.57405378    -0.00400
C3146       C  0.51676107  0.44874938  0.56062123    -0.12300
C3147       C  0.54718850  0.47266718  0.55977681     0.01800
C3148       C  0.56887230  0.47352759  0.57256864    -0.00500
C3149       C  0.56051925  0.44851779  0.58440429    -0.12200
C3150       C  0.53019302  0.42453571  0.58510495     0.01700
H3151       H  0.49953770  0.44953289  0.55198233     0.14700
H3152       H  0.57722497  0.44878270  0.59400330     0.14700
C3153       C  0.02206426  0.39694136  0.59701803     0.36400
C3154       C  0.55450846  0.49772986  0.54725052     0.36300
N3155       N  0.01602176  0.37710784  0.60731164    -0.44000
N3156       N  0.56013147  0.51768864  0.53715727    -0.44000
C3157       C  0.76762785  0.18851112  0.57819273    -0.00400
C3158       C  0.77211594  0.21168569  0.56566510    -0.12300
C3159       C  0.79824757  0.24091242  0.56668308     0.01800
C3160       C  0.82115238  0.24737892  0.58008761    -0.00500
C3161       C  0.81564339  0.22509649  0.59355029    -0.12200
C3162       C  0.78908081  0.19591946  0.59281727     0.01700
H3163       H  0.75550178  0.20672655  0.55472090     0.14700
H3164       H  0.83319478  0.22960785  0.60378368     0.14700
C3165       C  0.78581142  0.17338599  0.60636577     0.36400
C3166       C  0.80143839  0.26388816  0.55353840     0.36300
N3167       N  0.78319336  0.15540333  0.61727955    -0.44000
N3168       N  0.80374950  0.28240551  0.54315609    -0.44000
C3169       C  0.59304861  0.42325248  0.35296609    -0.00400
C3170       C  0.59571481  0.44950471  0.34424457    -0.12300
C3171       C  0.59195626  0.45050236  0.32501539     0.01800
C3172       C  0.58444451  0.42441182  0.31412312    -0.00500
C3173       C  0.58184069  0.39817075  0.32301928    -0.12200
C3174       C  0.58633939  0.39752227  0.34213620     0.01700
H3175       H  0.60059781  0.46936034  0.35258953     0.14700
H3176       H  0.57627580  0.37782490  0.31500481     0.14700
C3177       C  0.58260317  0.36974914  0.35036442     0.36400
C3178       C  0.59687423  0.47880655  0.31691743     0.36300
N3179       N  0.57956835  0.34738671  0.35683177    -0.44000
N3180       N  0.60108446  0.50164288  0.31049900    -0.44000
C3181       C  0.50459433  0.41876642  0.42373743    -0.00400
C3182       C  0.98647392  0.40480270  0.40858835    -0.12300
C3183       C  0.95550205  0.39600280  0.40785807     0.01800
C3184       C  0.94187028  0.40249932  0.42294632    -0.00500
C3185       C  0.95800292  0.41174733  0.43985107    -0.12200
C3186       C  0.98877739  0.41888397  0.44087525     0.01700
H3187       H  0.49686729  0.40052487  0.39591463     0.14700
H3188       H  0.94738079  0.41540895  0.45189013     0.14700
C3189       C  0.00423349  0.42725962  0.45854561     0.36400
C3190       C  0.93848901  0.38131505  0.39121117     0.36300
N3191       N  0.51739387  0.43493037  0.47196646    -0.44000
N3192       N  0.92475412  0.36930360  0.37795522    -0.44000
C3193       C  0.69702248  0.43995676  0.42331024    -0.00400
C3194       C  0.71668735  0.45080680  0.43875870    -0.12300
C3195       C  0.74388705  0.44974578  0.43933218     0.01800
C3196       C  0.75150765  0.43643531  0.42451983    -0.00500
C3197       C  0.73425503  0.42972997  0.40803897    -0.12200
C3198       C  0.70757841  0.43216275  0.40719960     0.01700
H3199       H  0.70996355  0.45869659  0.45090467     0.14700
H3200       H  0.74063254  0.42108488  0.39611529     0.14700
C3201       C  0.69121192  0.42587809  0.38987626     0.36400
C3202       C  0.76340915  0.46228355  0.45540514     0.36300
N3203       N  0.67853480  0.42167691  0.37585948    -0.44000
N3204       N  0.77922980  0.47261788  0.46818204    -0.44000
C3205       C  0.62936792  0.48255784  0.48723616    -0.00400
C3206       C  0.61529771  0.50041518  0.48963388    -0.12300
C3207       C  0.62648848  0.02303724  0.50321835     0.01800
C3208       C  0.65155521  0.02819817  0.51449095    -0.00500
C3209       C  0.66382972  0.00874292  0.51236903    -0.12200
C3210       C  0.65157930  0.98456682  0.49938111     0.01700
H3211       H  0.59525600  0.49534240  0.48156488     0.14700
H3212       H  0.68245292  0.01180219  0.52132284     0.14700
C3213       C  0.66424273  0.96446219  0.49890247     0.36400
C3214       C  0.61216002  0.54349553  0.50260094     0.36300
N3215       N  0.67424940  0.94821706  0.49865862    -0.44000
N3216       N  0.60043528  0.55820582  0.50291476    -0.44000
C3217       C  0.59458389  0.17701287  0.35206595    -0.00400
C3218       C  0.59660756  0.20235142  0.34273487    -0.12300
C3219       C  0.59336422  0.20212606  0.32340687     0.01800
C3220       C  0.58806328  0.17609840  0.31285428    -0.00500
C3221       C  0.58492454  0.15041329  0.32211357    -0.12200
C3222       C  0.58830455  0.15058396  0.34139462     0.01700
H3223       H  0.60060038  0.22241569  0.35054181     0.14700
H3224       H  0.58095749  0.13046387  0.31416912     0.14700
C3225       C  0.58554438  0.12309878  0.34949424     0.36400
C3226       C  0.59484256  0.22877380  0.31485288     0.36300
N3227       N  0.58330725  0.10094992  0.35579326    -0.44000
N3228       N  0.59595849  0.25014656  0.30810787    -0.44000
C3229       C  0.60659840  0.04279635  0.42734135    -0.00400
C3230       C  0.62340526  0.06745552  0.41523379    -0.12300
C3231       C  0.61931708  0.09293424  0.41525761     0.01800
C3232       C  0.59776802  0.09373616  0.42739735    -0.00500
C3233       C  0.58449442  0.07146272  0.44122490    -0.12200
C3234       C  0.58845511  0.04588304  0.44119635     0.01700
H3235       H  0.63808006  0.06583904  0.40485861     0.14700
H3236       H  0.56813092  0.07211615  0.45068350     0.14700
C3237       C  0.57003922  0.02154239  0.45390416     0.36400
C3238       C  0.63584619  0.11701935  0.40186302     0.36300
N3239       N  0.55465150  0.00249733  0.46423844    -0.44000
N3240       N  0.64903597  0.13639559  0.39118623    -0.44000
C3241       C  0.57830850  0.26453831  0.42032335    -0.00400
C3242       C  0.59534361  0.28573659  0.40639954    -0.12300
C3243       C  0.59979889  0.31559992  0.40671201     0.01800
C3244       C  0.58686558  0.32448523  0.42112903    -0.00500
C3245       C  0.56722326  0.30217499  0.43383656    -0.12200
C3246       C  0.56270858  0.27243081  0.43346106     0.01700
H3247       H  0.60770673  0.28002159  0.39636512     0.14700
H3248       H  0.55640671  0.30839496  0.44464439     0.14700
C3249       C  0.54332633  0.25080401  0.44738489     0.36400
C3250       C  0.62027835  0.33728743  0.39323492     0.36300
N3251       N  0.52777531  0.23339329  0.45849299    -0.44000
N3252       N  0.63679475  0.35428673  0.38229338    -0.44000
C3253       C  0.69011413  0.26875640  0.42339617    -0.00400
C3254       C  0.69831313  0.28845442  0.40797498    -0.12300
C3255       C  0.72704026  0.31560312  0.40712003     0.01800
C3256       C  0.74828918  0.32309243  0.42176475    -0.00500
C3257       C  0.74119896  0.30168152  0.43608682    -0.12200
C3258       C  0.71253216  0.27501720  0.43713891     0.01700
H3259       H  0.68147126  0.28385826  0.39723936     0.14700
H3260       H  0.75745993  0.30689710  0.44729596     0.14700
C3261       C  0.70645932  0.25524072  0.45297703     0.36400
C3262       C  0.73286184  0.33660473  0.39202071     0.36300
N3263       N  0.70163816  0.23961433  0.46576336    -0.44000
N3264       N  0.73746366  0.35340493  0.37990101    -0.44000
C3265       C  0.97388115  0.06630579  0.42165473    -0.00400
C3266       C  0.95236944  0.05724326  0.40731164    -0.12300
C3267       C  0.92771760  0.02735339  0.40649062     0.01800
C3268       C  0.92468853  0.00583742  0.42008655    -0.00500
C3269       C  0.94416645  0.01576347  0.43553265    -0.12200
C3270       C  0.96886026  0.04587880  0.43640188     0.01700
H3271       H  0.95587192  0.07308175  0.39613473     0.14700
H3272       H  0.94755151  0.49809032  0.45092101     0.14700
C3273       C  0.49211724  0.05448663  0.45194356     0.36400
C3274       C  0.90647673  0.01920535  0.39121359     0.36300
N3275       N  0.50921709  0.06029979  0.46406042    -0.44000
N3276       N  0.88956550  0.01325450  0.37897544    -0.44000
C3277       C  0.92104511  0.08642073  0.64961768    -0.00400
C3278       C  0.94251336  0.08077289  0.65871968    -0.12300
C3279       C  0.94370069  0.07945399  0.67812511     0.01800
C3280       C  0.92234610  0.08280408  0.68903504    -0.00500
C3281       C  0.90057215  0.08804586  0.67979197    -0.12200
C3282       C  0.90001159  0.09021832  0.66040971     0.01700
H3283       H  0.95911861  0.07811230  0.65059189     0.14700
H3284       H  0.88392015  0.09089256  0.68772145     0.14700
C3285       C  0.87706354  0.09544219  0.65197113     0.36400
C3286       C  0.96805125  0.07618198  0.68626424     0.36300
N3287       N  0.85861977  0.09957400  0.64521684    -0.44000
N3288       N  0.98801957  0.07406624  0.69256862    -0.44000
C3289       C  0.93461142  0.25040264  0.58268320    -0.00400
C3290       C  0.92052518  0.22898284  0.59706302    -0.12300
C3291       C  0.92436614  0.20323230  0.59855873     0.01800
C3292       C  0.94308533  0.19899049  0.58567443    -0.00500
C3293       C  0.96054827  0.22287080  0.57314591    -0.12200
C3294       C  0.95612664  0.24805786  0.57135507     0.01700
H3295       H  0.90433321  0.23082655  0.60608289     0.14700
H3296       H  0.97547278  0.22032118  0.56338665     0.14700
C3297       C  0.97287886  0.27041230  0.55713032     0.36400
C3298       C  0.90573615  0.17975460  0.61179702     0.36300
N3299       N  0.98622012  0.28826953  0.54568538    -0.44000
N3300       N  0.89064678  0.16090337  0.62235384    -0.44000
C3301       C  0.92143547  0.00701842  0.57434154    -0.00400
C3302       C  0.93047691  0.49510075  0.56294370    -0.12300
C3303       C  0.92351348  0.46440846  0.56206608     0.01800
C3304       C  0.90767800  0.44416531  0.57684761    -0.00500
C3305       C  0.89650365  0.45447606  0.59129335    -0.12200
C3306       C  0.89896863  0.98540318  0.58637019     0.01700
H3307       H  0.94460107  0.51106627  0.55224893     0.14700
H3308       H  0.88402174  0.43909259  0.60262311     0.14700
C3309       C  0.88421553  0.99449550  0.60008110     0.36400
C3310       C  0.93595097  0.45549168  0.54691746     0.36300
N3311       N  0.87222078  0.00170255  0.61098992    -0.44000
N3312       N  0.94621272  0.44882653  0.53467917    -0.44000
C3313       C  0.83254474  0.10138035  0.58121963    -0.00400
C3314       C  0.80722937  0.07310587  0.58656810    -0.12300
C3315       C  0.77716206  0.06830710  0.58559708     0.01800
C3316       C  0.77251985  0.09219522  0.57943556    -0.00500
C3317       C  0.79803896  0.12095556  0.57555204    -0.12200
C3318       C  0.82769628  0.12572668  0.57629408     0.01700
H3319       H  0.81073786  0.05427412  0.59035757     0.14700
H3320       H  0.79465380  0.13964903  0.57114184     0.14700
C3321       C  0.85259030  0.15564274  0.57113963     0.36400
C3322       C  0.75154978  0.03838744  0.58966988     0.36300
N3323       N  0.87218427  0.17959505  0.56674402    -0.44000
N3324       N  0.73099224  0.01433166  0.59289154    -0.44000
C3325       C  0.54293836  0.10543718  0.57689066    -0.00400
C3326       C  0.56628448  0.11834598  0.59022154    -0.12300
C3327       C  0.58964247  0.11117181  0.59055438     0.01800
C3328       C  0.58996916  0.09071424  0.57730055    -0.00500
C3329       C  0.56888898  0.08081557  0.56261041    -0.12200
C3330       C  0.54527073  0.08789221  0.56233127     0.01700
H3331       H  0.56505251  0.13236536  0.60122064     0.14700
H3332       H  0.56923902  0.06542318  0.55225725     0.14700
C3333       C  0.52204951  0.07412556  0.54812709     0.36400
C3334       C  0.61210481  0.12390399  0.60525395     0.36300
N3335       N  0.50347229  0.06308046  0.53673018    -0.44000
N3336       N  0.62998936  0.13414837  0.61707874    -0.44000
C3337       C  0.98378235  0.13293507  0.51409566    -0.00400
C3338       C  0.00705518  0.16381183  0.51317180    -0.12300
C3339       C  0.52700574  0.17577133  0.49888193     0.01800
C3340       C  0.52885545  0.15517739  0.48623505    -0.00500
C3341       C  0.50768878  0.12362623  0.48829768    -0.12200
C3342       C  0.98219284  0.11264709  0.50015099     0.01700
H3343       H  0.00843119  0.17960153  0.52385322     0.14700
H3344       H  0.50813265  0.10739220  0.47870470     0.14700
C3345       C  0.95735956  0.08125457  0.49965593     0.36400
C3346       C  0.54845670  0.20833518  0.49851272     0.36300
N3347       N  0.93723435  0.05621085  0.49921880    -0.44000
N3348       N  0.56568937  0.23443911  0.49840819    -0.44000
O3349       O  0.92662755  0.57241672  0.62098973    -0.81100
O3350       O  0.95763348  0.59602308  0.54060633    -0.65800
O3351       O  0.95518318  0.60948774  0.59204999    -1.12400
C3352       C  0.85893536  0.59939332  0.57621409     1.05800
O3353       O  0.94740925  0.63294990  0.53494937    -0.79000
O3354       O  0.92586664  0.65639605  0.56032914    -0.66600
Ni3355     Ni  0.96526849  0.58784937  0.60950250     1.34900
C3356       C  0.93133366  0.66492908  0.57709579     0.84500
O3357       O  0.99681937  0.60568383  0.56780790    -0.79600
O3358       O  0.50492087  0.60454645  0.59633874    -0.89800
C3359       C  0.96150097  0.61863277  0.53096576     0.84100
O3360       O  0.94859916  0.54933339  0.59744302    -0.68000
O3361       O  0.86995193  0.60574477  0.55975281    -0.87300
C3362       C  0.93696066  0.53953480  0.58162374     0.84900
C3363       C  0.51284537  0.60696889  0.57934548     1.06500
H3364       H  0.90201874  0.57493888  0.56391080     0.38300
O3365       O  0.91674993  0.59626900  0.56619641    -1.10000
O3366       O  0.92941138  0.64713301  0.59030574    -0.66600
Ni3367     Ni  0.91415707  0.60316636  0.59198583     1.26300
O3368       O  0.93796636  0.55706954  0.56864914    -0.66900
O3369       O  0.87295367  0.59643098  0.59021030    -0.79200
C3370       C  0.91968179  0.59048079  0.62870571     0.84300
O3371       O  0.91357430  0.60757524  0.61868635    -0.66300
Ni3372     Ni  0.90873326  0.61817364  0.54799156     1.27400
Ni3373     Ni  0.95670258  0.60114418  0.56657161     1.26100
H3374       H  0.96941684  0.63104391  0.59401142     0.38800
O3375       O  0.58101447  0.64687934  0.38044711    -0.81100
O3376       O  0.55898032  0.64555300  0.46367806    -0.65800
O3377       O  0.55643742  0.65664012  0.41184703    -1.12400
C3378       C  0.65640020  0.74155427  0.42378619     1.05800
O3379       O  0.57205751  0.69352546  0.46881103    -0.79000
O3380       O  0.59418475  0.73775726  0.44228905    -0.66600
Ni3381     Ni  0.54572459  0.62340882  0.39522236     1.34900
C3382       C  0.58463532  0.73836075  0.42610913     0.84500
O3383       O  0.51668018  0.61406990  0.43841436    -0.79600
O3384       O  0.50956073  0.59704362  0.40901296    -0.89800
C3385       C  0.55631843  0.66515718  0.47316086     0.84100
O3386       O  0.56809792  0.60684857  0.40665736    -0.68000
O3387       O  0.64812347  0.73805277  0.44086795    -0.87300
C3388       C  0.57822242  0.60822372  0.42287793     0.84900
C3389       C  0.50094603  0.59485828  0.42581138     1.06500
H3390       H  0.61204787  0.67619802  0.43769216     0.38300
O3391       O  0.59768309  0.68342716  0.43622461    -1.10000
O3392       O  0.58250288  0.72013623  0.41312880    -0.66600
Ni3393     Ni  0.59730956  0.69141036  0.41040060     1.26300
O3394       O  0.57450279  0.62276464  0.43600498    -0.66900
O3395       O  0.63873643  0.72575950  0.41040890    -0.79200
C3396       C  0.58743266  0.67224941  0.37336171     0.84300
O3397       O  0.59467023  0.69533832  0.38380101    -0.66300
Ni3398     Ni  0.60981277  0.71476464  0.45415583     1.27400
Ni3399     Ni  0.55725092  0.64917536  0.43768809     1.26100
H3400       H  0.54193290  0.66355593  0.40991838     0.38800
O3401       O  0.56989014  0.92810471  0.38139481    -0.81100
O3402       O  0.59240258  0.95414600  0.46249516    -0.65800
O3403       O  0.60639656  0.95441794  0.41086975    -1.12400
C3404       C  0.59165587  0.85506326  0.42467426     1.05800
O3405       O  0.62811510  0.94201876  0.46765297    -0.79000
O3406       O  0.65039830  0.91969438  0.44145390    -0.66600
Ni3407     Ni  0.58614131  0.96644014  0.39364450     1.34900
C3408       C  0.66039529  0.92825007  0.42510532     0.84500
O3409       O  0.60439853  0.49562977  0.43621583    -0.79600
O3410       O  0.59988942  0.50394077  0.40600581    -0.89800
C3411       C  0.61464008  0.95680037  0.47220806     0.84100
O3412       O  0.54753999  0.94998195  0.40542639    -0.68000
O3413       O  0.59734286  0.86481551  0.44143931    -0.87300
C3414       C  0.53653560  0.93618707  0.42058085     0.84900
C3415       C  0.60382773  0.51214979  0.42297077     1.06500
H3416       H  0.57056684  0.89975463  0.43751685     0.38300
O3417       O  0.59206624  0.91433223  0.43573410    -1.10000
O3418       O  0.64353071  0.92844082  0.41193026    -0.66600
Ni3419     Ni  0.59964199  0.91316567  0.40992462     1.26300
O3420       O  0.55320661  0.93582665  0.43374359    -0.66900
O3421       O  0.59240856  0.87149918  0.41082057    -0.79200
C3422       C  0.58746493  0.92079205  0.37334311     0.84300
O3423       O  0.60434461  0.91403240  0.38316256    -0.66300
Ni3424     Ni  0.61210443  0.90373333  0.45378279     1.27400
Ni3425     Ni  0.59741990  0.95455563  0.43637235     1.26100
H3426       H  0.62806312  0.96853961  0.40931533     0.38800
O3427       O  0.64976819  0.58731388  0.61856253    -0.81100
O3428       O  0.64431228  0.55904989  0.53713609    -0.65800
O3429       O  0.65839371  0.55978521  0.58878662    -1.12400
C3430       C  0.74051242  0.65996387  0.57435547     1.05800
O3431       O  0.69241979  0.57218849  0.53195481    -0.79000
O3432       O  0.73890131  0.59969169  0.55747483    -0.66600
Ni3433     Ni  0.62629220  0.54945500  0.60601003     1.34900
C3434       C  0.74131919  0.59188512  0.57383312     0.84500
O3435       O  0.61443619  0.51849222  0.56369001    -0.79600
O3436       O  0.60053223  0.51129030  0.59377076    -0.89800
C3437       C  0.66401067  0.55658980  0.52760192     0.84100
O3438       O  0.60638614  0.56821066  0.59420752    -0.68000
O3439       O  0.73555226  0.65103420  0.55735524    -0.87300
C3440       C  0.60773094  0.57905612  0.57822774     0.84900
C3441       C  0.59682656  0.50260513  0.57688488     1.06500
H3442       H  0.67546141  0.61371930  0.56217215     0.38300
O3443       O  0.68309290  0.59968842  0.56368459    -1.10000
O3444       O  0.72202708  0.58706914  0.58668609    -0.66600
Ni3445     Ni  0.69252953  0.60099022  0.58931892     1.26300
O3446       O  0.62279086  0.57639553  0.56499805    -0.66900
O3447       O  0.72609657  0.64270661  0.58818614    -0.79200
C3448       C  0.67476293  0.59386026  0.62621409     0.84300
O3449       O  0.69770870  0.60007086  0.61592658    -0.66300
Ni3450     Ni  0.71314100  0.61146086  0.54522842     1.27400
Ni3451     Ni  0.64926414  0.55908204  0.56317069     1.26100
H3452       H  0.66589415  0.54573008  0.59074047     0.38800
O3453       O  0.86173153  0.94474214  0.37782973    -0.81100
O3454       O  0.86914300  0.91481180  0.45681487    -0.65800
O3455       O  0.85143264  0.90451567  0.40526568    -1.12400
C3456       C  0.77109689  0.92302878  0.42311942     1.05800
O3457       O  0.82099968  0.88126010  0.46338666    -0.79000
O3458       O  0.77559170  0.86021480  0.43747490    -0.66600
Ni3459     Ni  0.88318724  0.92620954  0.38782084     1.34900
C3460       C  0.77164556  0.85236204  0.42053613     0.84500
O3461       O  0.89725923  0.90540840  0.42843269    -0.79600
O3462       O  0.90707828  0.90993909  0.39789300    -0.89800
C3463       C  0.84957440  0.89382486  0.46719985     0.84100
O3464       O  0.90694982  0.96350224  0.40062514    -0.68000
O3465       O  0.77423236  0.91343768  0.43899370    -0.87300
C3466       C  0.90535624  0.97278234  0.41660455     0.84900
C3467       C  0.91310391  0.90583496  0.41446792     1.06500
H3468       H  0.83651350  0.93994780  0.43469334     0.38300
O3469       O  0.82859551  0.91849096  0.43201639    -1.10000
O3470       O  0.78738997  0.87035456  0.40735388    -0.66600
Ni3471     Ni  0.81858647  0.91366730  0.40616998     1.26300
O3472       O  0.88872799  0.95503289  0.42942229    -0.66900
O3473       O  0.78655654  0.92402347  0.40874574    -0.79200
C3474       C  0.83672128  0.92855610  0.36958845     0.84300
O3475       O  0.81323926  0.91101631  0.37933062    -0.66300
Ni3476     Ni  0.79854572  0.89793301  0.45029933     1.27400
Ni3477     Ni  0.86223513  0.91119060  0.43077303     1.26100
H3478       H  0.84282259  0.88290816  0.40275188     0.38800
O3479       O  0.93988196  0.86586977  0.61956730    -0.81100
O3480       O  0.91711446  0.86980571  0.53756938    -0.65800
O3481       O  0.90354409  0.85502930  0.58933529    -1.12400
C3482       C  0.92160856  0.77292257  0.57504902     1.05800
O3483       O  0.88251523  0.82152818  0.53180773    -0.79000
O3484       O  0.86045453  0.77698719  0.55814059    -0.66600
Ni3485     Ni  0.92401425  0.88756928  0.60663860     1.34900
C3486       C  0.85129329  0.77495888  0.57472414     0.84500
O3487       O  0.90641344  0.89954790  0.56420540    -0.79600
O3488       O  0.91015139  0.91200057  0.59439619    -0.89800
C3489       C  0.89582176  0.84996482  0.52747181     0.84100
O3490       O  0.96274355  0.90896109  0.59482187    -0.68000
O3491       O  0.91399413  0.77568432  0.55846028    -0.87300
C3492       C  0.97277567  0.90703532  0.57911105     0.84900
C3493       C  0.90686173  0.91662625  0.57740350     1.06500
H3494       H  0.94016389  0.83796024  0.56202868     0.38300
O3495       O  0.91861144  0.83040792  0.56402796    -1.10000
O3496       O  0.86848060  0.79146861  0.58796098    -0.66600
Ni3497     Ni  0.91184050  0.82159531  0.58993092     1.26300
O3498       O  0.95558277  0.89076041  0.56595341    -0.66900
O3499       O  0.92110807  0.78873996  0.58884617    -0.79200
C3500       C  0.92274740  0.84025482  0.62699430     0.84300
O3501       O  0.90696939  0.81689673  0.61670319    -0.66300
Ni3502     Ni  0.89880812  0.79954401  0.54594166     1.27400
Ni3503     Ni  0.91187094  0.86438008  0.56366986     1.26100
H3504       H  0.88184303  0.84681860  0.59114648     0.38800
O3505       O  0.52743760  0.78006721  0.05048676    -0.81100
O3506       O  0.52950551  0.75334075  0.13091611    -0.65800
O3507       O  0.51616983  0.74151124  0.07929836    -1.12400
C3508       C  0.92885966  0.74933121  0.09302860     1.05800
O3509       O  0.98144695  0.71334313  0.13616784    -0.79000
O3510       O  0.93982766  0.68939173  0.10804358    -0.66600
Ni3511     Ni  0.54925206  0.76354906  0.06261236     1.34900
C3512       C  0.93618645  0.68386275  0.09078160     0.84500
O3513       O  0.55964376  0.74318122  0.10445114    -0.79600
O3514       O  0.57274390  0.74803968  0.07431676    -0.89800
C3515       C  0.51102563  0.73070148  0.14057430     0.84100
O3516       O  0.57105720  0.80155312  0.07549508    -0.68000
O3517       O  0.93025052  0.73812638  0.10879103    -0.87300
C3518       C  0.56824271  0.81055612  0.09136172     0.84900
C3519       C  0.57601487  0.74259705  0.09117445     1.06500
H3520       H  0.49626013  0.77512681  0.10758399     0.38300
O3521       O  0.98891489  0.75160459  0.10496868    -1.10000
O3522       O  0.95104318  0.70422317  0.07849944    -0.66600
Ni3523     Ni  0.98173760  0.74772354  0.07879808     1.26300
O3524       O  0.55043714  0.79256970  0.10371785    -0.66900
O3525       O  0.94882325  0.75653710  0.08018597    -0.79200
C3526       C  0.50270255  0.76225574  0.04231194     0.84300
O3527       O  0.97862807  0.74578134  0.05198827    -0.66300
Ni3528     Ni  0.95708805  0.72678281  0.12168843     1.27400
Ni3529     Ni  0.52450849  0.74861207  0.10500693     1.26100
H3530       H  0.50859595  0.71999601  0.07706052     0.38800
O3531       O  0.61006479  0.69755134  0.28519264    -0.81100
O3532       O  0.58716298  0.70511160  0.20413223    -0.65800
O3533       O  0.57361920  0.68984148  0.25574356    -1.12400
C3534       C  0.59079270  0.60736546  0.24118350     1.05800
O3535       O  0.55278629  0.65668873  0.19841144    -0.79000
O3536       O  0.53133687  0.61094909  0.22379520    -0.66600
Ni3537     Ni  0.59520851  0.72114244  0.27333961     1.34900
C3538       C  0.52048338  0.60966107  0.23985969     0.84500
O3539       O  0.57650950  0.73480631  0.23127843    -0.79600
O3540       O  0.58217660  0.74664408  0.26167215    -0.89800
C3541       C  0.56529036  0.68518581  0.19439908     0.84100
O3542       O  0.63381260  0.74244457  0.26158177    -0.68000
O3543       O  0.58588982  0.61179577  0.22428768    -0.87300
C3544       C  0.64364083  0.74190950  0.24556577     0.84900
C3545       C  0.57730167  0.75138001  0.24493925     1.06500
H3546       H  0.61031891  0.67302614  0.22897343     0.38300
O3547       O  0.58864719  0.66543540  0.23046782    -1.10000
O3548       O  0.53651483  0.62698758  0.25318653    -0.66600
Ni3549     Ni  0.58018617  0.65548733  0.25612722     1.26300
O3550       O  0.62614522  0.72623176  0.23232188    -0.66900
O3551       O  0.58798436  0.62174862  0.25500124    -0.79200
C3552       C  0.59184644  0.67263863  0.29299955     0.84300
O3553       O  0.57399477  0.64994505  0.28278160    -0.66300
Ni3554     Ni  0.56991319  0.63510466  0.21201593     1.27400
Ni3555     Ni  0.58221674  0.69966833  0.23023500     1.26100
H3556       H  0.55206828  0.68248368  0.25762491     0.38800
O3557       O  0.81952535  0.93040151  0.28192376    -0.81100
O3558       O  0.80807381  0.89156184  0.20290766    -0.65800
O3559       O  0.82726611  0.89964100  0.25413242    -1.12400
C3560       C  0.90857408  0.99786262  0.23589097     1.05800
O3561       O  0.85621507  0.90706107  0.19544407    -0.79000
O3562       O  0.90180191  0.92992689  0.22069742    -0.66600
Ni3563     Ni  0.79642714  0.89047667  0.27209028     1.34900
C3564       C  0.90518767  0.92489118  0.23750811     0.84500
O3565       O  0.78195996  0.85394435  0.23171214    -0.79600
O3566       O  0.77150691  0.85031933  0.26227333    -0.89800
C3567       C  0.82755332  0.89103097  0.19210596     0.84100
O3568       O  0.77299405  0.90470134  0.25961575    -0.68000
O3569       O  0.90473121  0.98554465  0.21984118    -0.87300
C3570       C  0.77259321  0.91317096  0.24320436     0.84900
C3571       C  0.76642829  0.83913728  0.24593911     1.06500
H3572       H  0.84119134  0.94977567  0.22468140     0.38300
O3573       O  0.84933315  0.93639572  0.22711220    -1.10000
O3574       O  0.89018314  0.92779565  0.25081165    -0.66600
Ni3575     Ni  0.86047631  0.94136488  0.25279530     1.26300
O3576       O  0.78839130  0.91115193  0.23020737    -0.66900
O3577       O  0.89302589  0.98327091  0.25014929    -0.79200
C3578       C  0.84460222  0.93752570  0.28957629     0.84300
O3579       O  0.86758091  0.94394464  0.27934497    -0.66300
Ni3580     Ni  0.87929410  0.94584996  0.20855076     1.27400
Ni3581     Ni  0.81594894  0.89514534  0.22878372     1.26100
H3582       H  0.83563809  0.88631085  0.25662585     0.38800
O3583       O  0.72843885  0.75252187  0.04506683    -0.81100
O3584       O  0.75879095  0.79556252  0.12481175    -0.65800
O3585       O  0.76471633  0.78772662  0.07312887    -1.12400
C3586       C  0.75311287  0.69129560  0.09110320     1.05800
O3587       O  0.79274535  0.78135570  0.13055124    -0.79000
O3588       O  0.80971564  0.75100053  0.10626474    -0.66600
Ni3589     Ni  0.73501918  0.78860286  0.05731279     1.34900
C3590       C  0.82058307  0.76012069  0.09018763     0.84500
O3591       O  0.76419444  0.83167507  0.09634599    -0.79600
O3592       O  0.73896316  0.82432824  0.06933898    -0.89800
C3593       C  0.78107819  0.79812963  0.13425065     0.84100
O3594       O  0.69945501  0.76261718  0.07123565    -0.68000
O3595       O  0.75473137  0.70053745  0.10790155    -0.87300
C3596       C  0.69456662  0.76214890  0.08842479     0.84900
C3597       C  0.75033266  0.83907642  0.08439320     1.06500
H3598       H  0.73251586  0.73732210  0.10142764     0.38300
O3599       O  0.75415328  0.75151532  0.09984898    -1.10000
O3600       O  0.80662817  0.76640390  0.07761519    -0.66600
Ni3601     Ni  0.76238321  0.74858335  0.07446545     1.26300
O3602       O  0.71617141  0.77457033  0.10011460    -0.66900
O3603       O  0.75778086  0.70839477  0.07692152    -0.79200
C3604       C  0.75036085  0.75132927  0.03760667     0.84300
O3605       O  0.76904954  0.74843835  0.04811119    -0.66300
Ni3606     Ni  0.77290978  0.74106555  0.11873626     1.27400
Ni3607     Ni  0.76005512  0.79187926  0.09885335     1.26100
H3608       H  0.78501656  0.80330598  0.06924243     0.38800
O3609       O  0.73959321  0.98223850  0.04799796    -0.81100
O3610       O  0.72285501  0.98163563  0.12927550    -0.65800
O3611       O  0.71857104  0.99721174  0.07852630    -1.12400
C3612       C  0.81916527  0.57625374  0.08769682     1.05800
O3613       O  0.73667611  0.53012361  0.13443458    -0.79000
O3614       O  0.75522012  0.57287998  0.10734027    -0.66600
Ni3615     Ni  0.70209276  0.96471419  0.06132596     1.34900
C3616       C  0.74789443  0.57543273  0.09088488     0.84500
O3617       O  0.67949702  0.95145748  0.10407352    -0.79600
O3618       O  0.66396271  0.94477267  0.07444161    -0.89800
C3619       C  0.71995138  0.00053811  0.13931500     0.84100
O3620       O  0.71364902  0.93834785  0.07304376    -0.68000
O3621       O  0.81025296  0.57501116  0.10449985    -0.87300
C3622       C  0.72883451  0.94002282  0.08744376     0.84900
C3623       C  0.65981013  0.93656298  0.09142440     1.06500
H3624       H  0.77321046  0.51193038  0.10275405     0.38300
O3625       O  0.75949047  0.51992683  0.10118427    -1.10000
O3626       O  0.74846735  0.55935140  0.07733827    -0.66600
Ni3627     Ni  0.75896881  0.52714122  0.07530405     1.26300
O3628       O  0.73701739  0.96114502  0.09938769    -0.66900
O3629       O  0.80190996  0.55868780  0.07464709    -0.79200
C3630       C  0.74744838  0.50441187  0.03898029     0.84300
O3631       O  0.75649727  0.52892883  0.04850518    -0.66300
Ni3632     Ni  0.77300566  0.55161708  0.11873438     1.27400
Ni3633     Ni  0.72003545  0.98730348  0.10367112     1.26100
H3634       H  0.70429622  0.50600903  0.07736624     0.38800
O3635       O  0.59081407  0.90612557  0.28457519    -0.81100
O3636       O  0.61940665  0.92908828  0.20432111    -0.65800
O3637       O  0.61900741  0.94347653  0.25574285    -1.12400
C3638       C  0.52128522  0.93064628  0.24141680     1.05800
O3639       O  0.60825084  0.96534973  0.19866080    -0.79000
O3640       O  0.58824094  0.98967470  0.22479830    -0.66600
Ni3641     Ni  0.62972861  0.92254555  0.27316410     1.34900
C3642       C  0.59553521  0.99850626  0.24144944     0.84500
O3643       O  0.65952618  0.93856618  0.23123714    -0.79600
O3644       O  0.66872517  0.93737826  0.26172405    -0.89800
C3645       C  0.62267007  0.95135764  0.19448517     0.84100
O3646       O  0.61429121  0.88427583  0.26104835    -0.68000
O3647       O  0.53172092  0.93783520  0.22486115    -0.87300
C3648       C  0.60118801  0.87367148  0.24566616     0.84900
C3649       C  0.67656605  0.93978339  0.24472452     1.06500
H3650       H  0.56479234  0.90836041  0.22839380     0.38300
O3651       O  0.57957994  0.92972352  0.23047358    -1.10000
O3652       O  0.59347779  0.98064216  0.25458417    -0.64800
Ni3653     Ni  0.57806345  0.93691463  0.25632575     1.26300
O3654       O  0.60054998  0.89049900  0.23275904    -0.66900
O3655       O  0.53683382  0.92979849  0.25522978    -0.79200
C3656       C  0.58391293  0.92383298  0.29283192     0.84300
O3657       O  0.57841571  0.94157710  0.28303727    -0.66300
Ni3658     Ni  0.57032910  0.95104244  0.21251250     1.27400
Ni3659     Ni  0.61950618  0.93454082  0.23031567     1.26100
H3660       H  0.63330940  0.96514717  0.25744619     0.38800
O3661       O  0.93071334  0.82249460  0.71486682    -0.81100
O3662       O  0.89801786  0.80899125  0.79438025    -0.65800
O3663       O  0.90109332  0.82875990  0.74360568    -1.12400
C3664       C  0.99980275  0.91096508  0.76090370     1.05800
O3665       O  0.91114587  0.85605474  0.80251373    -0.79000
O3666       O  0.93459335  0.90366437  0.77806730    -0.66600
Ni3667     Ni  0.89147403  0.79808106  0.72539680     1.34900
C3668       C  0.92754470  0.90738693  0.76176831     0.84500
O3669       O  0.85876772  0.78195554  0.76667129    -0.79600
O3670       O  0.85199019  0.77198262  0.73602557    -0.89800
C3671       C  0.89556432  0.82713024  0.80536956     0.84100
O3672       O  0.90772718  0.77537105  0.73676266    -0.68000
O3673       O  0.98893509  0.90534404  0.77741013    -0.87300
C3674       C  0.91902857  0.77638477  0.75256887     0.84900
C3675       C  0.84280479  0.76630133  0.75279877     1.06500
H3676       H  0.95395553  0.84403128  0.77108420     0.38300
O3677       O  0.93974095  0.85144754  0.76963334    -1.10000
O3678       O  0.92801238  0.89203063  0.74778032    -0.66600
Ni3679     Ni  0.94241467  0.86307789  0.74418674     1.26300
O3680       O  0.91729591  0.79173324  0.76591253    -0.66900
O3681       O  0.98414305  0.89674185  0.74646486    -0.79200
C3682       C  0.93628207  0.84707233  0.70710714     0.84300
O3683       O  0.94252552  0.87000053  0.71752073    -0.66300
Ni3684     Ni  0.94981310  0.87981033  0.78910819     1.27400
Ni3685     Ni  0.89920940  0.81716669  0.76873032     1.26100
H3686       H  0.88707943  0.83636917  0.74191946     0.38800
O3687       O  0.76187610  0.73992069  0.95099948    -0.81100
O3688       O  0.79363338  0.75689488  0.87036589    -0.65800
O3689       O  0.79165640  0.77395303  0.92123527    -1.12400
C3690       C  0.69330018  0.75863115  0.90428832     1.05800
O3691       O  0.78239601  0.79277052  0.86334012    -0.79000
O3692       O  0.75727186  0.81610757  0.88686407    -0.66600
Ni3693     Ni  0.80018230  0.75258584  0.93971641     1.34900
C3694       C  0.76611931  0.82765158  0.90283597     0.84500
O3695       O  0.83256522  0.76689424  0.89799968    -0.79600
O3696       O  0.83865630  0.76337638  0.92868516    -0.89800
C3697       C  0.79784601  0.77934843  0.86042060     0.84100
O3698       O  0.78155045  0.71314707  0.92878757    -0.68000
O3699       O  0.70338442  0.76274090  0.88755826    -0.87300
C3700       C  0.77071539  0.70266524  0.91292251     0.84900
C3701       C  0.84777914  0.76609739  0.91194933     1.06500
H3702       H  0.73816501  0.73713082  0.89419734     0.38300
O3703       O  0.75293072  0.75871981  0.89539804    -1.10000
O3704       O  0.76716631  0.81229558  0.91664755    -0.66600
Ni3705     Ni  0.75105881  0.76862198  0.92059516     1.26300
O3706       O  0.77348553  0.71966026  0.89922639    -0.66900
O3707       O  0.70988576  0.76170357  0.91851916    -0.79200
C3708       C  0.75616370  0.75950865  0.95775630     0.84300
O3709       O  0.75114413  0.77638217  0.94686536    -0.66300
Ni3710     Ni  0.74297279  0.77705394  0.87598783     1.27400
Ni3711     Ni  0.79285479  0.76347285  0.89613498     1.26100
H3712       H  0.80634952  0.79548815  0.92274295     0.38800
O3713       O  0.69875883  0.60889638  0.71325184    -0.81100
O3714       O  0.70824065  0.58895584  0.79507427    -0.65800
O3715       O  0.69160461  0.57455930  0.74377428    -1.12400
C3716       C  0.60876814  0.59170387  0.75865554     1.05800
O3717       O  0.66006212  0.55763330  0.80247246    -0.79000
O3718       O  0.61462171  0.53527838  0.77718481    -0.66600
Ni3719     Ni  0.72288113  0.59557666  0.72598387     1.34900
C3720       C  0.61294678  0.52320579  0.76146482     0.84500
O3721       O  0.73543483  0.57517253  0.76815673    -0.79600
O3722       O  0.74923986  0.58399257  0.73813411    -0.89800
C3723       C  0.68860421  0.56857906  0.80562137     0.84100
O3724       O  0.74328163  0.63470558  0.73730369    -0.68000
O3725       O  0.61481719  0.58925318  0.77562715    -0.87300
C3726       C  0.74467424  0.64393845  0.75374767     0.84900
C3727       C  0.75286950  0.57739696  0.75466882     1.06500
H3728       H  0.67715155  0.61326987  0.77027666     0.38300
O3729       O  0.66864738  0.59137402  0.76919683    -1.10000
O3730       O  0.62954098  0.53819599  0.74768755    -0.66600
Ni3731     Ni  0.65744488  0.58156113  0.74370900     1.26300
O3732       O  0.73006719  0.62628745  0.76710052    -0.66900
O3733       O  0.62313470  0.58869577  0.74490315    -0.79200
C3734       C  0.67306537  0.58995885  0.70646480     0.84300
O3735       O  0.65067621  0.57389247  0.71730287    -0.66300
Ni3736     Ni  0.63880025  0.57436898  0.78818350     1.27400
Ni3737     Ni  0.70171010  0.58299809  0.76923685     1.26100
H3738       H  0.68398806  0.55294456  0.74188138     0.38800
O3739       O  0.77930879  0.52590453  0.95187980    -0.81100
O3740       O  0.75689066  0.53722347  0.87134522    -0.65800
O3741       O  0.74294202  0.51874000  0.92258561    -1.12400
C3742       C  0.75948110  0.93798333  0.90597574     1.05800
O3743       O  0.71980125  0.99029356  0.86677376    -0.79000
O3744       O  0.69879645  0.94332022  0.89142052    -0.66600
Ni3745     Ni  0.76400084  0.54962984  0.94064896     1.34900
C3746       C  0.68944791  0.94001440  0.90803793     0.84500
O3747       O  0.74549534  0.56456612  0.89920150    -0.79600
O3748       O  0.75028562  0.57525984  0.92969715    -0.89800
C3749       C  0.73513199  0.51833672  0.86117181     0.84100
O3750       O  0.80264425  0.57176741  0.92891319    -0.68000
O3751       O  0.75248401  0.94308714  0.88978071    -0.87300
C3752       C  0.81264610  0.57107149  0.91296137     0.84900
C3753       C  0.74567794  0.58046544  0.91301216     1.06500
H3754       H  0.77932623  0.50322049  0.89424844     0.38300
O3755       O  0.75696039  0.99692228  0.89806878    -1.10000
O3756       O  0.70672322  0.95576344  0.92150560    -0.66600
Ni3757     Ni  0.75051876  0.98519393  0.92364748     1.26300
O3758       O  0.79527214  0.55595818  0.89956781    -0.66900
O3759       O  0.75907484  0.95224401  0.92055781    -0.79200
C3760       C  0.76091139  0.50045760  0.95912650     0.84300
O3761       O  0.74602782  0.97792059  0.95020693    -0.66300
Ni3762     Ni  0.73682241  0.96765173  0.87914852     1.27400
Ni3763     Ni  0.75142375  0.52987922  0.89723524     1.26100
H3764       H  0.72131114  0.51089473  0.92451472     0.38800
O3765       O  0.98586167  0.75074567  0.95537626    -0.81100
O3766       O  0.97990211  0.71832646  0.87526341    -0.65800
O3767       O  0.99660525  0.72281639  0.92657466    -1.12400
C3768       C  0.57764475  0.82389820  0.90994877     1.05800
O3769       O  0.52800142  0.73530209  0.86766688    -0.79000
O3770       O  0.57380483  0.76086723  0.89292658    -0.66600
Ni3771     Ni  0.96446856  0.71153695  0.94390532     1.34900
C3772       C  0.57674762  0.75254399  0.90903628     0.84500
O3773       O  0.95396134  0.67781664  0.90251214    -0.79600
O3774       O  0.94076790  0.67199365  0.93268840    -0.89800
C3775       C  0.00008884  0.71904637  0.86461628     0.84100
O3776       O  0.94097567  0.72609770  0.93161215    -0.68000
O3777       O  0.57193102  0.81375974  0.89324774    -0.87300
C3778       C  0.94065271  0.73456252  0.91517498     0.84900
C3779       C  0.93711381  0.66202154  0.91606616     1.06500
H3780       H  0.51014218  0.77453331  0.89879654     0.38300
O3781       O  0.51917722  0.76171845  0.90039325    -1.10000
O3782       O  0.56022946  0.75136467  0.92285660    -0.66600
Ni3783     Ni  0.53064393  0.76533023  0.92602271     1.26300
O3784       O  0.95706563  0.73323679  0.90239741    -0.66900
O3785       O  0.56383334  0.80731152  0.92408313    -0.79200
C3786       C  0.51432202  0.76247830  0.96272630     0.84300
O3787       O  0.53690782  0.76644433  0.95270808    -0.66300
Ni3788     Ni  0.54872637  0.77410167  0.88137270     1.27400
Ni3789     Ni  0.98653648  0.71987483  0.90106746     1.26100
H3790       H  0.50495908  0.71040825  0.92956656     0.38800
O3791       O  0.90466150  0.59140445  0.71703852    -0.81100
O3792       O  0.93414183  0.62535176  0.79624076    -0.65800
O3793       O  0.94487763  0.62064559  0.74475993    -1.12400
C3794       C  0.92983243  0.52252646  0.76064987     1.05800
O3795       O  0.96930573  0.61244283  0.80194449    -0.79000
O3796       O  0.99075456  0.58967223  0.77580147    -0.66600
Ni3797     Ni  0.92348850  0.63124600  0.72753866     1.34900
C3798       C  0.99857260  0.59505034  0.75892341     0.84500
O3799       O  0.94433419  0.66449062  0.76857614    -0.79600
O3800       O  0.94099793  0.67123589  0.73800299    -0.89800
C3801       C  0.95584516  0.62738488  0.80609611     0.84100
O3802       O  0.88634456  0.61826099  0.74054342    -0.68000
O3803       O  0.93824198  0.53397140  0.77694945    -0.87300
C3804       C  0.87661874  0.60647265  0.75632337     0.84900
C3805       C  0.94553185  0.68087772  0.75471845     1.06500
H3806       H  0.91000103  0.56879641  0.77354217     0.38300
O3807       O  0.93138463  0.58275049  0.77090543    -1.10000
O3808       O  0.98022036  0.59267737  0.74594146    -0.66600
Ni3809     Ni  0.93660624  0.57908705  0.74499323     1.26300
O3810       O  0.89403764  0.60608688  0.76891814    -0.66900
O3811       O  0.92795246  0.53735358  0.74676841    -0.79200
C3812       C  0.92139297  0.58337713  0.70865765     0.84300
O3813       O  0.93916512  0.57757655  0.71824278    -0.66300
Ni3814     Ni  0.95301686  0.57351728  0.78869850     1.27400
Ni3815     Ni  0.93804040  0.62347877  0.77027768     1.26100
H3816       H  0.96646657  0.63407106  0.74243417     0.38800
C3817       C  0.98980015  0.69632185  0.84909205    -0.00400
C3818       C  0.95833440  0.67430403  0.84784382    -0.12300
C3819       C  0.94706456  0.65139249  0.83428829     0.01800
C3820       C  0.96729958  0.64968997  0.82157432    -0.00500
C3821       C  0.99871401  0.67138586  0.82269929    -0.12200
C3822       C  0.50852764  0.69147627  0.83634104     0.01700
H3823       H  0.94219781  0.67469619  0.85759501     0.14700
H3824       H  0.51210255  0.66662056  0.81307915     0.14700
C3825       C  0.54115004  0.71263100  0.83634870     0.36400
C3826       C  0.91462363  0.62940974  0.83401980     0.36300
N3827       N  0.56728724  0.72967831  0.83623753    -0.44000
N3828       N  0.88863935  0.61177715  0.83386792    -0.44000
C3829       C  0.60248884  0.85660780  0.91251114    -0.00400
C3830       C  0.60798717  0.87729093  0.89798822    -0.12300
C3831       C  0.63457829  0.90617501  0.89747086     0.01800
C3832       C  0.65725031  0.91485947  0.91139204    -0.00500
C3833       C  0.65034184  0.89570268  0.92696311    -0.12200
C3834       C  0.62299202  0.86704216  0.92779555     0.01700
H3835       H  0.59185205  0.87046222  0.88657101     0.14700
H3836       H  0.66711973  0.90219893  0.93798066     0.14700
C3837       C  0.61733521  0.84857418  0.94417392     0.36400
C3838       C  0.63827768  0.92621189  0.88217142     0.36300
N3839       N  0.61271711  0.83427799  0.95755645    -0.44000
N3840       N  0.64104394  0.94222338  0.86993083    -0.44000
C3841       C  0.90942897  0.63193508  0.91231000    -0.00400
C3842       C  0.89253867  0.62871893  0.89608571    -0.12300
C3843       C  0.86105849  0.60725993  0.89517270     0.01800
C3844       C  0.84632148  0.58848789  0.91063154    -0.00500
C3845       C  0.86421747  0.58868309  0.92560457    -0.12200
C3846       C  0.89550158  0.60994884  0.92651560     0.01700
H3847       H  0.90308420  0.64498969  0.88486533     0.14700
H3848       H  0.85334137  0.57324686  0.93718759     0.14700
C3849       C  0.91227617  0.60979119  0.94271512     0.36400
C3850       C  0.84412236  0.60731150  0.87909061     0.36300
N3851       N  0.92552144  0.60948561  0.95574419    -0.44000
N3852       N  0.83081124  0.60762096  0.86611430    -0.44000
C3853       C  0.52775795  0.59994389  0.75455726    -0.00400
C3854       C  0.53206635  0.58118325  0.74202090    -0.12300
C3855       C  0.55915777  0.57963446  0.74221827     0.01800
C3856       C  0.58276098  0.59727935  0.75510247    -0.00500
C3857       C  0.57936098  0.61796467  0.76653213    -0.12200
C3858       C  0.55235979  0.61958822  0.76622457     0.01700
H3859       H  0.51321138  0.56570845  0.73316197     0.14700
H3860       H  0.59741260  0.63210801  0.77625032     0.14700
C3861       C  0.54998616  0.64107764  0.77834661     0.36400
C3862       C  0.56050567  0.55736027  0.73036109     0.36300
N3863       N  0.54806828  0.65847155  0.78789746    -0.44000
N3864       N  0.56095100  0.53928224  0.72071394    -0.44000
C3865       C  0.78067404  0.57513862  0.75815440    -0.00400
C3866       C  0.79859761  0.58958361  0.77393289    -0.12300
C3867       C  0.82987604  0.59851607  0.77443805     0.01800
C3868       C  0.84314576  0.59186479  0.75923556    -0.00500
C3869       C  0.82417633  0.57388539  0.74467781    -0.12200
C3870       C  0.79332974  0.56561981  0.74394779     0.01700
H3871       H  0.78908965  0.59674961  0.78500604     0.14700
H3872       H  0.83404521  0.56800060  0.73313735     0.14700
C3873       C  0.77586575  0.54933091  0.72774399     0.36400
C3874       C  0.84836598  0.61761014  0.78952337     0.36300
N3875       N  0.76204832  0.53657802  0.71466002    -0.44000
N3876       N  0.86297549  0.63320637  0.80159915    -0.44000
C3877       C  0.72335785  0.53021386  0.84641564    -0.00400
C3878       C  0.69181779  0.51983006  0.84562782    -0.12300
C3879       C  0.67980219  0.53219895  0.83290398     0.01800
C3880       C  0.69963909  0.55570976  0.82053756    -0.00500
C3881       C  0.73127120  0.56584509  0.82142961    -0.12200
C3882       C  0.74307883  0.55319342  0.83398157     0.01700
H3883       H  0.67650445  0.50231488  0.85526082     0.14700
H3884       H  0.74703053  0.58331100  0.81193760     0.14700
C3885       C  0.77530014  0.56299247  0.83302360     0.36400
C3886       C  0.64709098  0.52011534  0.83302089     0.36300
N3887       N  0.80105427  0.57069479  0.83188189    -0.44000
N3888       N  0.62082983  0.51019147  0.83321662    -0.44000
C3889       C  0.92053560  0.74711073  0.91111024    -0.00400
C3890       C  0.92242830  0.77023429  0.92274723    -0.12300
C3891       C  0.90087502  0.77978140  0.92155116     0.01800
C3892       C  0.87631137  0.76537040  0.90892574    -0.00500
C3893       C  0.87602444  0.74423167  0.89608640    -0.12200
C3894       C  0.89813892  0.73515495  0.89700394     0.01700
H3895       H  0.94031449  0.78022407  0.93318944     0.14700
H3896       H  0.85719265  0.73299215  0.88633224     0.14700
C3897       C  0.89594948  0.71193838  0.88434033     0.36400
C3898       C  0.90393138  0.80385747  0.93375441     0.36300
N3899       N  0.89428856  0.69348559  0.87410565    -0.44000
N3900       N  0.90651575  0.82333220  0.94342136    -0.44000
C3901       C  0.66072169  0.75067504  0.90723201    -0.00400
C3902       C  0.65210640  0.75889363  0.92391408    -0.12300
C3903       C  0.62307450  0.75629991  0.92591168     0.01800
C3904       C  0.60216814  0.74565349  0.91094746    -0.00500
C3905       C  0.60956538  0.73423306  0.89519528    -0.12200
C3906       C  0.63825102  0.73656116  0.89321454     0.01700
H3907       H  0.66862716  0.76893760  0.93507223     0.14700
H3908       H  0.59340278  0.72504254  0.88377208     0.14700
C3909       C  0.64402277  0.72482695  0.87636528     0.36400
C3910       C  0.61611367  0.76627117  0.94301863     0.36300
N3911       N  0.64864587  0.71547264  0.86284684    -0.44000
N3912       N  0.61052095  0.77387634  0.95689105    -0.44000
C3913       C  0.74265571  0.60791612  0.90985294    -0.00400
C3914       C  0.73278647  0.61874144  0.92472502    -0.12300
C3915       C  0.73890678  0.64897328  0.92513122     0.01800
C3916       C  0.75548067  0.66909739  0.91049258    -0.00500
C3917       C  0.76125851  0.65715569  0.89445726    -0.12200
C3918       C  0.75479109  0.62668271  0.89394438     0.01700
H3919       H  0.72206766  0.60416297  0.93666276     0.14700
H3920       H  0.77310148  0.67224334  0.88289506     0.14700
C3921       C  0.76325684  0.61646186  0.87749501     0.36400
C3922       C  0.72895894  0.65903056  0.94107540     0.36300
N3923       N  0.76994742  0.60859110  0.86412567    -0.44000
N3924       N  0.72084585  0.66692264  0.95384782    -0.44000
C3925       C  0.76787756  0.91356498  0.90740035    -0.00400
C3926       C  0.77951679  0.90703090  0.89149286    -0.12300
C3927       C  0.78133591  0.88036726  0.89010325     0.01800
C3928       C  0.77279239  0.85983723  0.90530810    -0.00500
C3929       C  0.76437043  0.86809688  0.92199716    -0.12200
C3930       C  0.76130144  0.89434696  0.92307380     0.01700
H3931       H  0.78528633  0.92183348  0.87946406     0.14700
H3932       H  0.75733471  0.85253877  0.93370393     0.14700
C3933       C  0.74836444  0.89906646  0.93972691     0.36400
C3934       C  0.78921294  0.87365312  0.87215109     0.36300
N3935       N  0.73776108  0.90271642  0.95301636    -0.44000
N3936       N  0.79467217  0.86848807  0.85746770    -0.44000
C3937       C  0.53205141  0.93591689  0.75909761    -0.00400
C3938       C  0.54090789  0.95347609  0.74272206    -0.12300
C3939       C  0.56904204  0.98119951  0.74162341     0.01800
C3940       C  0.58852312  0.99205553  0.75727136    -0.00500
C3941       C  0.58123603  0.97268651  0.77271023    -0.12200
C3942       C  0.55358343  0.94496312  0.77375755     0.01700
H3943       H  0.52517506  0.94645210  0.73109149     0.14700
H3944       H  0.59246934  0.48198119  0.78869478     0.14700
C3945       C  0.54787869  0.92690643  0.79037545     0.36400
C3946       C  0.57668941  0.99827536  0.72454116     0.36300
N3947       N  0.04354875  0.91348514  0.80337320    -0.44000
N3948       N  0.58287834  0.01128636  0.71057906    -0.44000
C3949       C  0.81328590  0.73814417  0.75629288    -0.00400
C3950       C  0.81247026  0.71797441  0.76999272    -0.12300
C3951       C  0.78867136  0.68745917  0.77055691     0.01800
C3952       C  0.76519914  0.67685126  0.75714608    -0.00500
C3953       C  0.76448735  0.69771867  0.74456976    -0.12200
C3954       C  0.78821456  0.72822648  0.74408731     0.01700
H3955       H  0.83187300  0.72521703  0.77914866     0.14700
H3956       H  0.74615353  0.68972258  0.73442800     0.14700
C3957       C  0.78688027  0.74852857  0.73048952     0.36400
C3958       C  0.79069699  0.66693930  0.78371018     0.36300
N3959       N  0.78565689  0.76473523  0.71960128    -0.44000
N3960       N  0.79246672  0.65067441  0.79431473    -0.44000
C3961       C  0.92104696  0.93290696  0.75932031    -0.00400
C3962       C  0.93395640  0.95293209  0.74419166    -0.12300
C3963       C  0.93642632  0.98202513  0.74421160     0.01800
C3964       C  0.92587838  0.99151809  0.75960537    -0.00500
C3965       C  0.91073630  0.97045051  0.77394487    -0.12200
C3966       C  0.90797685  0.94140437  0.77385154     0.01700
H3967       H  0.94429037  0.94688461  0.73300500     0.14700
H3968       H  0.90180835  0.97707800  0.78562779     0.14700
C3969       C  0.89243123  0.92107619  0.78920613     0.36400
C3970       C  0.95232078  0.50198437  0.72870868     0.36300
N3971       N  0.88001900  0.90475190  0.80148901    -0.44000
N3972       N  0.96604568  0.51838756  0.71671612    -0.44000
C3973       C  0.94965899  0.71185858  0.75761819    -0.00400
C3974       C  0.95852081  0.73145846  0.74220252    -0.12300
C3975       C  0.95094544  0.75443246  0.74094059     0.01800
C3976       C  0.93428490  0.75822169  0.75538248    -0.00500
C3977       C  0.93012817  0.74228438  0.77206688    -0.12200
C3978       C  0.93814066  0.71940835  0.77340415     0.01700
H3979       H  0.96916493  0.72720779  0.73038809     0.14700
H3980       H  0.91881433  0.74623879  0.78362743     0.14700
C3981       C  0.93293117  0.70334554  0.79076045     0.36400
C3982       C  0.95964698  0.77297223  0.72435696     0.36300
N3983       N  0.92923823  0.69105491  0.80485942    -0.44000
N3984       N  0.96686298  0.78772054  0.71103421    -0.44000
C3985       C  0.82319749  0.79182848  0.84664259    -0.00400
C3986       C  0.82840864  0.77151800  0.83610788    -0.12300
C3987       C  0.85294886  0.78232390  0.82358324     0.01800
C3988       C  0.87206505  0.81434270  0.82052232    -0.00500
C3989       C  0.86763604  0.83455035  0.83181069    -0.12200
C3990       C  0.84429372  0.82357428  0.84518073     0.01700
H3991       H  0.81360563  0.74700478  0.83797144     0.14700
H3992       H  0.88294804  0.85907919  0.83056777     0.14700
C3993       C  0.84496856  0.84496745  0.85871005     0.36400
C3994       C  0.85892108  0.75989013  0.81512769     0.36300
N3995       N  0.84649639  0.86203776  0.86995606    -0.44000
N3996       N  0.86418611  0.74192079  0.80882924    -0.44000
C3997       C  0.75814622  0.49923014  0.97975380    -0.00400
C3998       C  0.78034595  0.52457739  0.99005987    -0.12300
C3999       C  0.77728805  0.52727725  0.00917651     0.01800
C4000       C  0.75162952  0.50427331  0.01857096    -0.00500
C4001       C  0.72987476  0.47850732  0.00842835    -0.12200
C4002       C  0.73285314  0.47577696  0.98929903     0.01700
H4003       H  0.80024402  0.54276474  0.98313072     0.14700
H4004       H  0.71009791  0.46036023  0.01548517     0.14700
C4005       C  0.70724246  0.95558286  0.98118043     0.36400
C4006       C  0.80140544  0.55324459  0.01884924     0.36300
N4007       N  0.68647562  0.93585795  0.97359151    -0.44000
N4008       N  0.82092838  0.57401033  0.02654365    -0.44000
C4009       C  0.64629011  0.96328916  0.17944069    -0.00400
C4010       C  0.66538146  0.95048627  0.17737751    -0.12300
C4011       C  0.68986075  0.96263407  0.16480236     0.01800
C4012       C  0.69610477  0.98846556  0.15399368    -0.00500
C4013       C  0.67692656  0.00103871  0.15578196    -0.12200
C4014       C  0.65203077  0.98858744  0.16806978     0.01700
H4015       H  0.66161578  0.93114234  0.18585768     0.14700
H4016       H  0.67953369  0.51778497  0.14507988     0.14700
C4017       C  0.63356442  0.50127722  0.16799277     0.36400
C4018       C  0.70884035  0.94873273  0.16373687     0.36300
N4019       N  0.61672790  0.51056557  0.16754918    -0.44000
N4020       N  0.72405688  0.93759887  0.16290258    -0.44000
C4021       C  0.75629805  0.76166656  0.97811852    -0.00400
C4022       C  0.77869602  0.75832957  0.98784767    -0.12300
C4023       C  0.77761557  0.75502777  0.00712891     0.01800
C4024       C  0.75338520  0.75459143  0.01710250    -0.00500
C4025       C  0.73152904  0.75895737  0.00727472    -0.12200
C4026       C  0.73288611  0.76258820  0.98801726     0.01700
H4027       H  0.79694603  0.75773985  0.98024127     0.14700
H4028       H  0.71290019  0.75923235  0.01458497     0.14700
C4029       C  0.70903935  0.76536813  0.97869727     0.36400
C4030       C  0.80161650  0.75210507  0.01611851     0.36300
N4031       N  0.68988364  0.76754208  0.97124640    -0.44000
N4032       N  0.82101038  0.74994754  0.02326272    -0.44000
C4033       C  0.74453363  0.86443527  0.08827070    -0.00400
C4034       C  0.76777006  0.89280248  0.09511217    -0.12300
C4035       C  0.76297651  0.91799111  0.09626643     0.01800
C4036       C  0.73470365  0.91454318  0.09037376    -0.00500
C4037       C  0.71083713  0.88549096  0.08540948    -0.12200
C4038       C  0.71534310  0.86062125  0.08433567     0.01700
H4039       H  0.78992560  0.89563873  0.09871863     0.14700
H4040       H  0.68854851  0.88236997  0.08173047     0.14700
C4041       C  0.68936948  0.83164163  0.07876964     0.36400
C4042       C  0.78756766  0.94713185  0.10267869     0.36300
N4043       N  0.66817410  0.80890618  0.07412504    -0.44000
N4044       N  0.80720766  0.97044269  0.10797507    -0.44000
C4045       C  0.74613239  0.65913379  0.08822596    -0.00400
C4046       C  0.72918523  0.63732133  0.10187168    -0.12300
C4047       C  0.72633146  0.60826893  0.10171978     0.01800
C4048       C  0.74082500  0.60038420  0.08778343    -0.00500
C4049       C  0.75486807  0.62080692  0.07300753    -0.12200
C4050       C  0.75789668  0.65011586  0.07315304     0.01700
H4051       H  0.71902040  0.64335862  0.11316125     0.14700
H4052       H  0.76562036  0.61483030  0.06208813     0.14700
C4053       C  0.77540274  0.67110366  0.05848502     0.36400
C4054       C  0.70918868  0.58729346  0.11645875     0.36300
N4055       N  0.78946060  0.68786715  0.04671260    -0.44000
N4056       N  0.69536289  0.57060978  0.12830340    -0.44000
C4057       C  0.98814390  0.92214558  0.24310830    -0.00400
C4058       C  0.96585648  0.90278877  0.23023059    -0.12300
C4059       C  0.93703995  0.90059674  0.22945745     0.01800
C4060       C  0.93015768  0.91830669  0.24159375    -0.00500
C4061       C  0.95126836  0.93534994  0.25558050    -0.12200
C4062       C  0.98008496  0.93746405  0.25641882     0.01700
H4063       H  0.97140856  0.89022628  0.22024705     0.14700
H4064       H  0.94631788  0.94917108  0.26492384     0.14700
C4065       C  0.50274049  0.95928855  0.27071878     0.36400
C4066       C  0.91516240  0.88051393  0.21583044     0.36300
N4067       N  0.52000334  0.97657758  0.28129234    -0.44000
N4068       N  0.89762659  0.86420055  0.20499005    -0.44000
C4069       C  0.75253135  0.92596313  0.23963191    -0.00400
C4070       C  0.75435420  0.94831516  0.25196591    -0.12300
C4071       C  0.73103073  0.95550424  0.25279944     0.01800
C4072       C  0.70573484  0.94085343  0.24065861    -0.00500
C4073       C  0.70560360  0.92093159  0.22696395    -0.12200
C4074       C  0.72836934  0.91274762  0.22668244     0.01700
H4075       H  0.77292827  0.95845548  0.26197231     0.14700
H4076       H  0.68591969  0.90903493  0.21786328     0.14700
C4077       C  0.72389455  0.88758860  0.21498663     0.36400
C4078       C  0.73243324  0.97604002  0.26723340     0.36300
N4079       N  0.71981367  0.86698582  0.20587440    -0.44000
N4080       N  0.73340166  0.99214083  0.27897596    -0.44000
C4081       C  0.79414361  0.82227444  0.14894900    -0.00400
C4082       C  0.77885800  0.83859692  0.15292724    -0.12300
C4083       C  0.78980862  0.86171324  0.16637531     0.01800
C4084       C  0.81664832  0.86902931  0.17640697    -0.00500
C4085       C  0.83260039  0.85363509  0.17207699    -0.12200
C4086       C  0.82177074  0.83055257  0.15853080     0.01700
H4087       H  0.75814928  0.83345505  0.14545336     0.14700
H4088       H  0.85338915  0.85923115  0.17959067     0.14700
C4089       C  0.83989866  0.81631356  0.15473960     0.36400
C4090       C  0.77368549  0.87837281  0.16896709     0.36300
N4091       N  0.85466101  0.80513569  0.15173839    -0.44000
N4092       N  0.76076287  0.89177328  0.17075149    -0.44000
C4093       C  0.59980711  0.58375311  0.24458424    -0.00400
C4094       C  0.61797427  0.57991097  0.23128757    -0.12300
C4095       C  0.62217506  0.55447156  0.23182295     0.01800
C4096       C  0.60718680  0.53167046  0.24545046    -0.00500
C4097       C  0.59235925  0.53735737  0.26002993    -0.12200
C4098       C  0.58872795  0.56323680  0.25979671     0.01700
H4099       H  0.62802550  0.59625120  0.22004101     0.14700
H4100       H  0.58119375  0.52020532  0.27074435     0.14700
C4101       C  0.57148960  0.56657813  0.27461970     0.36400
C4102       C  0.64123044  0.55162948  0.21794797     0.36300
N4103       N  0.55790064  0.56899544  0.28676119    -0.44000
N4104       N  0.65683161  0.54945757  0.20703291    -0.44000
C4105       C  0.58680259  0.84014466  0.24309477    -0.00400
C4106       C  0.59205282  0.82836587  0.22676481    -0.12300
C4107       C  0.58599809  0.79793308  0.22603221     0.01800
C4108       C  0.57429657  0.77892302  0.24187420    -0.00500
C4109       C  0.56513912  0.78970343  0.25710695    -0.12200
C4110       C  0.57157001  0.81995675  0.25797032     0.01700
H4111       H  0.60318166  0.84356636  0.21513267     0.14700
H4112       H  0.55502462  0.77509245  0.26911485     0.14700
C4113       C  0.56381470  0.82995140  0.27484765     0.36400
C4114       C  0.59418002  0.78789955  0.20939875     0.36300
N4115       N  0.55758805  0.83750543  0.28852761    -0.44000
N4116       N  0.60060036  0.78019402  0.19585824    -0.44000
C4117       C  0.98765334  0.58493117  0.24454020    -0.00400
C4118       C  0.96860639  0.57634169  0.22882741    -0.12300
C4119       C  0.94087217  0.54855437  0.22809328     0.01800
C4120       C  0.93176637  0.52777259  0.24311991    -0.00500
C4121       C  0.94876180  0.53796330  0.25972516    -0.12200
C4122       C  0.97625291  0.56659666  0.26062594     0.01700
H4123       H  0.97616192  0.59085096  0.21661743     0.14700
H4124       H  0.94150616  0.52296975  0.27170014     0.14700
C4125       C  0.49424015  0.57667050  0.27586949     0.36400
C4126       C  0.92244693  0.54186018  0.21153113     0.36300
N4127       N  0.50788598  0.58407479  0.28961947    -0.44000
N4128       N  0.90765364  0.53665609  0.19829704    -0.44000
C4129       C  0.67717668  0.76101371  0.24285589    -0.00400
C4130       C  0.69619046  0.76414517  0.25793055    -0.12300
C4131       C  0.72680342  0.78750812  0.25839320     0.01800
C4132       C  0.73901661  0.80840397  0.24347472    -0.00500
C4133       C  0.72120342  0.80272006  0.22739350    -0.12200
C4134       C  0.69037577  0.77938199  0.22702555     0.01700
H4135       H  0.68657101  0.74940513  0.26993496     0.14700
H4136       H  0.73039915  0.81831227  0.21573716     0.14700
C4137       C  0.67226394  0.77714650  0.21104485     0.36400
C4138       C  0.74454132  0.79052514  0.27482542     0.36300
N4139       N  0.65801050  0.77570359  0.19813988    -0.44000
N4140       N  0.75868708  0.79305060  0.28802522    -0.44000
C4141       C  0.51510609  0.76532258  0.98322883    -0.00400
C4142       C  0.99281068  0.77265420  0.99150254    -0.12300
C4143       C  0.98801770  0.77101148  0.01068094     0.01800
C4144       C  0.50375742  0.76078504  0.02191281    -0.00500
C4145       C  0.52193194  0.74980292  0.01399386    -0.12200
C4146       C  0.52722472  0.75144181  0.99479827     0.01700
H4147       H  0.98035693  0.78020549  0.98274931     0.14700
H4148       H  0.53176688  0.73958083  0.02286974     0.14700
C4149       C  0.54302204  0.73665665  0.98725335     0.36400
C4150       C  0.96758806  0.78048011  0.01827342     0.36300
N4151       N  0.55531775  0.72438160  0.98126911    -0.44000
N4152       N  0.95116640  0.78807280  0.02428717    -0.44000
C4153       C  0.60193901  0.73784539  0.09536494    -0.00400
C4154       C  0.62314782  0.75643216  0.10890526    -0.12300
C4155       C  0.65332032  0.76199417  0.10854920     0.01800
C4156       C  0.66224373  0.74855863  0.09442833    -0.00500
C4157       C  0.63951522  0.72604642  0.08300557    -0.12200
C4158       C  0.60953486  0.72064912  0.08335132     0.01700
H4159       H  0.61721534  0.76929656  0.11842875     0.14700
H4160       H  0.64577430  0.71457731  0.07263981     0.14700
C4161       C  0.58748291  0.69882024  0.07043693     0.36400
C4162       C  0.67520125  0.78452084  0.12123566     0.36300
N4163       N  0.56984076  0.68121527  0.06012536    -0.44000
N4164       N  0.69261632  0.80263385  0.13142266    -0.44000
C4165       C  0.84842931  0.75813011  0.08622372    -0.00400
C4166       C  0.84600519  0.72987736  0.09067979    -0.12300
C4167       C  0.87181419  0.72681781  0.09270464     0.01800
C4168       C  0.90127110  0.75206555  0.08934605    -0.00500
C4169       C  0.90377736  0.77983288  0.08318358    -0.12200
C4170       C  0.87756639  0.78318817  0.08194115     0.01700
H4171       H  0.82366553  0.71035376  0.09389200     0.14700
H4172       H  0.92627204  0.79933761  0.08041780     0.14700
C4173       C  0.88128011  0.81275768  0.07754422     0.36400
C4174       C  0.86724618  0.69768182  0.09917106     0.36300
N4175       N  0.88428397  0.83652330  0.07406187    -0.44000
N4176       N  0.86324348  0.67442029  0.10472045    -0.44000
C4177       C  0.63239717  0.90651270  0.09596230    -0.00400
C4178       C  0.60610995  0.89618924  0.08488649    -0.12300
C4179       C  0.58366103  0.86510343  0.08429226     0.01800
C4180       C  0.58687121  0.84371218  0.09522901    -0.00500
C4181       C  0.61138852  0.85422077  0.10770754    -0.12200
C4182       C  0.63433266  0.88527428  0.10804607     0.01700
H4183       H  0.60418780  0.91208660  0.07561936     0.14700
H4184       H  0.61405341  0.83774327  0.11599995     0.14700
C4185       C  0.66124847  0.89355422  0.11914156     0.36400
C4186       C  0.55838488  0.85537277  0.07151867     0.36300
N4187       N  0.68284429  0.89978500  0.12789736    -0.44000
N4188       N  0.53817864  0.84758305  0.06124450    -0.44000
C4189       C  0.91089688  0.65291293  0.08517911    -0.00400
C4190       C  0.88890912  0.65096083  0.07236647    -0.12300
C4191       C  0.85937264  0.62483973  0.07163064     0.01800
C4192       C  0.85155267  0.59996341  0.08376231    -0.00500
C4193       C  0.87465445  0.60063138  0.09499053    -0.12200
C4194       C  0.90412300  0.62656234  0.09561902     0.01700
H4195       H  0.89367690  0.67099930  0.06426259     0.14700
H4196       H  0.86917030  0.58140715  0.10407227     0.14700
C4197       C  0.92681863  0.62603671  0.10757858     0.36400
C4198       C  0.83682773  0.62559770  0.05967412     0.36300
N4199       N  0.94513294  0.62555828  0.11702579    -0.44000
N4200       N  0.81917157  0.62661064  0.04988721    -0.44000
C4201       C  0.55159551  0.69562803  0.17984953    -0.00400
C4202       C  0.51967829  0.68354955  0.17967905    -0.12300
C4203       C  0.50582084  0.69490187  0.16753016     0.01800
C4204       C  0.52399171  0.71871289  0.15490883    -0.00500
C4205       C  0.55595670  0.73041660  0.15505563    -0.12200
C4206       C  0.56970801  0.71917942  0.16722479     0.01700
H4207       H  0.50553362  0.66575252  0.18951459     0.14700
H4208       H  0.57051949  0.74822054  0.14534722     0.14700
C4209       C  0.60232867  0.73132316  0.16572203     0.36400
C4210       C  0.97187530  0.68027454  0.16913729     0.36300
N4211       N  0.62842883  0.74116794  0.16403903    -0.44000
N4212       N  0.94585285  0.67121026  0.17051155    -0.44000
C4213       C  0.92272353  0.83941810  0.64754896    -0.00400
C4214       C  0.92356507  0.86420599  0.65718633    -0.12300
C4215       C  0.92794664  0.86751571  0.67646210     0.01800
C4216       C  0.93290499  0.84638431  0.68648896    -0.00500
C4217       C  0.93132185  0.82118689  0.67676917    -0.12200
C4218       C  0.92581393  0.81732271  0.65762898     0.01700
H4219       H  0.92067888  0.88113784  0.64955464     0.14700
H4220       H  0.93423539  0.80409396  0.68415446     0.14700
C4221       C  0.92436745  0.79105383  0.64861598     0.36400
C4222       C  0.92569304  0.89180351  0.68557533     0.36300
N4223       N  0.92297648  0.76988711  0.64139794    -0.44000
N4224       N  0.92343216  0.91103571  0.69285426    -0.44000
C4225       C  0.83717096  0.93058960  0.34897470    -0.00400
C4226       C  0.86223497  0.95632800  0.34053232    -0.12300
C4227       C  0.86608569  0.95866503  0.32126004     0.01800
C4228       C  0.84462438  0.93500739  0.30994679    -0.00500
C4229       C  0.81973546  0.90923460  0.31823150    -0.12200
C4230       C  0.81591826  0.90674632  0.33750871     0.01700
H4231       H  0.87907826  0.97489885  0.34901358     0.14700
H4232       H  0.80303899  0.89087244  0.30952196     0.14700
C4233       C  0.79068036  0.87907411  0.34503308     0.36400
C4234       C  0.89118628  0.98614664  0.31339056     0.36300
N4235       N  0.77047098  0.85675096  0.35096462    -0.44000
N4236       N  0.91115114  0.00819709  0.30701174    -0.44000
C4237       C  0.86067782  0.88245247  0.48307075    -0.00400
C4238       C  0.89252242  0.89497121  0.48561816    -0.12300
C4239       C  0.90434073  0.88443455  0.49964760     0.01800
C4240       C  0.88436404  0.86051021  0.51157359    -0.00500
C4241       C  0.85264139  0.84783575  0.50908208    -0.12200
C4242       C  0.84068390  0.85864909  0.49525774     0.01700
H4243       H  0.90849803  0.91302773  0.47650858     0.14700
H4244       H  0.83703232  0.82989613  0.51835145     0.14700
C4245       C  0.80779274  0.84505307  0.49429094     0.36400
C4246       C  0.93715033  0.89790434  0.50110499     0.36300
N4247       N  0.78141894  0.83415573  0.49363602    -0.44000
N4248       N  0.96344157  0.90862380  0.50231424    -0.44000
C4249       C  0.67528133  0.59310061  0.64685380    -0.00400
C4250       C  0.65055308  0.59233948  0.65658868    -0.12300
C4251       C  0.64814427  0.58939154  0.67591099     0.01800
C4252       C  0.67103678  0.58771424  0.68602497    -0.00500
C4253       C  0.69549756  0.58800812  0.67639856    -0.12200
C4254       C  0.69759961  0.59024611  0.65702712     0.01700
H4255       H  0.63285674  0.59412054  0.64909539     0.14700
H4256       H  0.71319716  0.58654616  0.68412286     0.14700
C4257       C  0.72216956  0.58838841  0.64801837     0.36400
C4258       C  0.62282171  0.58964399  0.68502895     0.36300
N4259       N  0.74167847  0.58662310  0.64075394    -0.44000
N4260       N  0.60248946  0.58992363  0.69224442    -0.44000
C4261       C  0.50600101  0.92498661  0.57778884    -0.00400
C4262       C  0.51728173  0.94589074  0.56309944    -0.12300
C4263       C  0.54806996  0.96912504  0.56269908     0.01800
C4264       C  0.56819459  0.97100066  0.57698141    -0.00500
C4265       C  0.55750227  0.94790231  0.59048959    -0.12200
C4266       C  0.52665266  0.92504482  0.59103991     0.01700
H4267       H  0.50152269  0.94576318  0.55284019     0.14700
H4268       H  0.57283502  0.94896009  0.60139634     0.14700
C4269       C  0.01635908  0.90575259  0.60571906     0.36400
C4270       C  0.55717718  0.99280462  0.54887850     0.36300
N4271       N  0.00844814  0.88918196  0.61823405    -0.44000
N4272       N  0.56419136  0.01182086  0.53785570    -0.44000
C4273       C  0.76533338  0.69200280  0.57791971    -0.00400
C4274       C  0.76924144  0.71496175  0.56537271    -0.12300
C4275       C  0.79573451  0.74391206  0.56570612     0.01800
C4276       C  0.81943463  0.75019807  0.57845403    -0.00500
C4277       C  0.81426948  0.72841274  0.59221868    -0.12200
C4278       C  0.78738671  0.69949843  0.59212929     0.01700
H4279       H  0.75205183  0.70987699  0.55478194     0.14700
H4280       H  0.83230518  0.73295478  0.60209207     0.14700
C4281       C  0.78438074  0.67713943  0.60573338     0.36400
C4282       C  0.79852682  0.76661028  0.55245049     0.36300
N4283       N  0.78183126  0.65919802  0.61665817    -0.44000
N4284       N  0.80057968  0.78487422  0.54194228    -0.44000
C4285       C  0.58774361  0.92155788  0.35276233    -0.00400
C4286       C  0.58017983  0.94190919  0.34393461    -0.12300
C4287       C  0.57840382  0.94314479  0.32459783     0.01800
C4288       C  0.58395575  0.92342928  0.31350912    -0.00500
C4289       C  0.59152430  0.90308069  0.32243216    -0.12200
C4290       C  0.59357693  0.90210298  0.34174092     0.01700
H4291       H  0.57579829  0.95725946  0.35222215     0.14700
H4292       H  0.59606554  0.88769618  0.31431995     0.14700
C4293       C  0.60053874  0.88009080  0.34974908     0.36400
C4294       C  0.57135951  0.96521683  0.31673279     0.36300
N4295       N  0.60601961  0.86221202  0.35593734    -0.44000
N4296       N  0.56590206  0.98318160  0.31064086    -0.44000
C4297       C  0.50255989  0.91966228  0.42193296    -0.00400
C4298       C  0.98944300  0.91173917  0.40452214    -0.12300
C4299       C  0.95847414  0.90231262  0.40243720     0.01800
C4300       C  0.94185654  0.90472907  0.41752605    -0.00500
C4301       C  0.95597170  0.91188502  0.43515786    -0.12200
C4302       C  0.98697688  0.92018021  0.43730769     0.01700
H4303       H  0.49762049  0.90274555  0.39391180     0.14700
H4304       H  0.94342042  0.91274294  0.44711133     0.14700
C4305       C  0.00023398  0.92672224  0.45561132     0.36400
C4306       C  0.94502658  0.89151210  0.38434223     0.36300
N4307       N  0.51224214  0.93837752  0.46988092    -0.44000
N4308       N  0.93447736  0.88295089  0.36979701    -0.44000
C4309       C  0.69299950  0.93645966  0.42192631    -0.00400
C4310       C  0.71229343  0.94510317  0.43751461    -0.12300
C4311       C  0.73916735  0.94353430  0.43755524     0.01800
C4312       C  0.74740292  0.93259506  0.42177417    -0.00500
C4313       C  0.73057484  0.92816341  0.40530600    -0.12200
C4314       C  0.70379298  0.93054766  0.40519407     0.01700
H4315       H  0.70544617  0.95151453  0.45022458     0.14700
H4316       H  0.73734210  0.92127081  0.39277189     0.14700
C4317       C  0.68757003  0.92603045  0.38794597     0.36400
C4318       C  0.75734192  0.95260450  0.45431127     0.36300
N4319       N  0.67488747  0.92290174  0.37402868    -0.44000
N4320       N  0.77179973  0.95988991  0.46776814    -0.44000
C4321       C  0.62689724  0.97989549  0.48770147    -0.00400
C4322       C  0.61463585  0.99932501  0.49009595    -0.12300
C4323       C  0.62689367  0.52523180  0.50197746     0.01800
C4324       C  0.65310992  0.53271399  0.51277061    -0.00500
C4325       C  0.66738839  0.51506805  0.51050656    -0.12200
C4326       C  0.65585287  0.49023986  0.49799791     0.01700
H4327       H  0.59580033  0.99629472  0.48147969     0.14700
H4328       H  0.68728276  0.52022360  0.51888222     0.14700
C4329       C  0.67170957  0.47313398  0.49672318     0.36400
C4330       C  0.61299262  0.04237766  0.50434709     0.36300
N4331       N  0.68448579  0.45946824  0.49576110    -0.44000
N4332       N  0.60205891  0.05777619  0.50517877    -0.44000
C4333       C  0.58737128  0.67378316  0.35288561    -0.00400
C4334       C  0.61346514  0.69588046  0.34370104    -0.12300
C4335       C  0.61588610  0.69505349  0.32439457     0.01800
C4336       C  0.59143350  0.67184965  0.31369535    -0.00500
C4337       C  0.56517472  0.64980472  0.32300983    -0.12200
C4338       C  0.56297282  0.65058132  0.34237552     0.01700
H4339       H  0.63252520  0.71321778  0.35170605     0.14700
H4340       H  0.54601866  0.63235106  0.31515145     0.14700
C4341       C  0.53497250  0.62776999  0.35113845     0.36400
C4342       C  0.64427470  0.71814339  0.31616423     0.36300
N4343       N  0.51250704  0.60958895  0.35815471    -0.44000
N4344       N  0.66701929  0.73673965  0.30963159    -0.44000
C4345       C  0.60554190  0.54163627  0.42714981    -0.00400
C4346       C  0.62071717  0.56585586  0.41450222    -0.12300
C4347       C  0.61457442  0.58999517  0.41405101     0.01800
C4348       C  0.59330294  0.59024896  0.42660015    -0.00500
C4349       C  0.58155050  0.56851540  0.44078949    -0.12200
C4350       C  0.58686935  0.54385829  0.44094756     0.01700
H4351       H  0.63550703  0.56467666  0.40402878     0.14700
H4352       H  0.56540199  0.56885953  0.45051168     0.14700
C4353       C  0.56886609  0.51917584  0.45356784     0.36400
C4354       C  0.62917104  0.61344751  0.40007235     0.36300
N4355       N  0.55356558  0.49973413  0.46370877    -0.44000
N4356       N  0.64093976  0.63232427  0.38892707    -0.44000
C4357       C  0.57867881  0.76381679  0.42225160    -0.00400
C4358       C  0.59672218  0.78549096  0.40878441    -0.12300
C4359       C  0.60011610  0.81494174  0.40861455     0.01800
C4360       C  0.58433272  0.82281426  0.42168387    -0.00500
C4361       C  0.56446323  0.80022566  0.43424011    -0.12200
C4362       C  0.56176073  0.77112990  0.43473080     0.01700
H4363       H  0.61069704  0.78052725  0.39958714     0.14700
H4364       H  0.55225598  0.80590023  0.44440525     0.14700
C4365       C  0.54269159  0.74963113  0.44879150     0.36400
C4366       C  0.62313582  0.83762514  0.39662830     0.36300
N4367       N  0.52744422  0.73236831  0.46005105    -0.44000
N4368       N  0.64215543  0.85547415  0.38712187    -0.44000
C4369       C  0.68817231  0.76623907  0.41949093    -0.00400
C4370       C  0.69299831  0.78843742  0.40605543    -0.12300
C4371       C  0.72146772  0.81575778  0.40462718     0.01800
C4372       C  0.74578807  0.82096175  0.41667595    -0.00500
C4373       C  0.74166695  0.79733799  0.42877025    -0.12200
C4374       C  0.71330393  0.77026006  0.43025757     0.01700
H4375       H  0.67386215  0.78555196  0.39766334     0.14700
H4376       H  0.76016912  0.80092403  0.43801227     0.14700
C4377       C  0.71031013  0.74726841  0.44335784     0.36400
C4378       C  0.72395924  0.83928923  0.39214295     0.36300
N4379       N  0.70793414  0.72878758  0.45380696    -0.44000
N4380       N  0.72576035  0.85808119  0.38214965    -0.44000
C4381       C  0.97497002  0.56782964  0.43010405    -0.00400
C4382       C  0.95131756  0.55987961  0.41724344    -0.12300
C4383       C  0.92731967  0.52968420  0.41575857     0.01800
C4384       C  0.92670881  0.50688502  0.42740234    -0.00500
C4385       C  0.94812394  0.51551327  0.44183031    -0.12200
C4386       C  0.97240216  0.54582778  0.44321755     0.01700
H4387       H  0.95295738  0.57680028  0.40730843     0.14700
H4388       H  0.94175792  0.99935376  0.44607247     0.14700
C4389       C  0.49493013  0.55241781  0.45613057     0.36400
C4390       C  0.90461060  0.52237848  0.40144496     0.36300
N4391       N  0.51419531  0.55740271  0.46666618    -0.44000
N4392       N  0.88651623  0.51666492  0.38994086    -0.44000
C4393       C  0.92033017  0.59116935  0.64914825    -0.00400
C4394       C  0.94528667  0.59123844  0.65798120    -0.12300
C4395       C  0.94588499  0.58768939  0.67719149     0.01800
C4396       C  0.92091167  0.58367968  0.68804069    -0.00500
C4397       C  0.89585544  0.58356722  0.67908331    -0.12200
C4398       C  0.89545832  0.58736216  0.65984912     0.01700
H4399       H  0.96446550  0.59392509  0.64973682     0.14700
H4400       H  0.87640387  0.58057374  0.68714079     0.14700
C4401       C  0.86883777  0.58589347  0.65130979     0.36400
C4402       C  0.97277105  0.58916740  0.68533259     0.36300
N4403       N  0.84756302  0.58467569  0.64434964    -0.44000
N4404       N  0.99434182  0.59040830  0.69186315    -0.44000
C4405       C  0.93078710  0.74934333  0.57824407    -0.00400
C4406       C  0.91862110  0.72921052  0.59341066    -0.12300
C4407       C  0.92127257  0.70270668  0.59458880     0.01800
C4408       C  0.93741469  0.69661891  0.58076347    -0.00500
C4409       C  0.95249415  0.71870320  0.56685406    -0.12200
C4410       C  0.94882617  0.74438232  0.56524893     0.01700
H4411       H  0.90464684  0.73265380  0.60345549     0.14700
H4412       H  0.96496386  0.71441779  0.55613685     0.14700
C4413       C  0.96241597  0.76425197  0.54944803     0.36400
C4414       C  0.90372906  0.68023580  0.60859758     0.36300
N4415       N  0.97306852  0.77987503  0.53664515    -0.44000
N4416       N  0.88938451  0.66201724  0.61966298    -0.44000
C4417       C  0.92231364  0.50608337  0.57850818    -0.00400
C4418       C  0.93337504  0.99679344  0.56033619    -0.12300
C4419       C  0.92609850  0.96604088  0.55966194     0.01800
C4420       C  0.90633333  0.94508369  0.57316571    -0.00500
C4421       C  0.89164000  0.95473911  0.58572211    -0.12200
C4422       C  0.90380693  0.48508217  0.59232209     0.01700
H4423       H  0.95049187  0.01329873  0.55099086     0.14700
H4424       H  0.87606510  0.93876671  0.59594904     0.14700
C4425       C  0.89327697  0.49460418  0.60823684     0.36400
C4426       C  0.94207971  0.95766635  0.54641243     0.36300
N4427       N  0.88478985  0.50200113  0.62105783    -0.44000
N4428       N  0.95497137  0.95109786  0.53577543    -0.44000
C4429       C  0.82916801  0.59809919  0.57885255    -0.00400
C4430       C  0.80337528  0.57200742  0.58620133    -0.12300
C4431       C  0.77410380  0.56942685  0.58573258     0.01800
C4432       C  0.77080513  0.59327942  0.57791515    -0.00500
C4433       C  0.79706801  0.62008265  0.57204421    -0.12200
C4434       C  0.82581588  0.62264913  0.57233522     0.01700
H4435       H  0.80578147  0.55313953  0.59138972     0.14700
H4436       H  0.79493148  0.63898241  0.56653552     0.14700
C4437       C  0.85139099  0.65064269  0.56525982     0.36400
C4438       C  0.74779425  0.54170090  0.59226086     0.36300
N4439       N  0.87152356  0.67306696  0.55937525    -0.44000
N4440       N  0.72666072  0.51945190  0.59750804    -0.44000
C4441       C  0.54239955  0.60854012  0.57532047    -0.00400
C4442       C  0.56521351  0.62064160  0.58903468    -0.12300
C4443       C  0.58884115  0.61385043  0.58915000     0.01800
C4444       C  0.58998457  0.59469619  0.57528000    -0.00500
C4445       C  0.57002225  0.58641921  0.56012673    -0.12200
C4446       C  0.54604257  0.59290175  0.56007803     0.01700
H4447       H  0.56334504  0.63359223  0.60046346     0.14700
H4448       H  0.57136762  0.57245283  0.54917840     0.14700
C4449       C  0.52377029  0.58004255  0.54532211     0.36400
C4450       C  0.61080816  0.62568199  0.60414638     0.36300
N4451       N  0.50597361  0.56945797  0.53348210    -0.44000
N4452       N  0.62835610  0.63532542  0.61617308    -0.44000
C4453       C  0.98529420  0.63067749  0.51635273    -0.00400
C4454       C  0.00724185  0.66209942  0.51620416    -0.12300
C4455       C  0.52754279  0.67378038  0.49977842     0.01800
C4456       C  0.53212344  0.65397901  0.48795375    -0.00500
C4457       C  0.51146255  0.62215545  0.48939336    -0.12200
C4458       C  0.98749075  0.61131505  0.50317625     0.01700
H4459       H  0.00588897  0.67709671  0.52647216     0.14700
H4460       H  0.51382860  0.60645661  0.48027204     0.14700
C4461       C  0.96459057  0.57920524  0.50196740     0.36400
C4462       C  0.54753255  0.70661088  0.49945233     0.36300
N4463       N  0.94617120  0.55351600  0.50087913    -0.44000
N4464       N  0.56347811  0.73295800  0.49926629    -0.44000
loop_ 
_geom_bond_atom_site_label_1 
_geom_bond_atom_site_label_2 
_geom_bond_distance 
_geom_bond_site_symmetry_2 
_ccdc_geom_bond_type 
O1           Ni7   1.894       .  S
O1           C22   1.258       .  A
O2          Ni25   1.903       .  S
O2           C11   1.266       .  A
O3           Ni7   1.901       .  S
O3          Ni25   1.905       .  S
O3          Ni19   1.926       .  S
O3           H26   0.966       .  S
C4           O21   1.281       .  A
C4           O13   1.282       .  A
C4         C1081   1.479       .  S
O5          Ni24   1.951       .  S
O5           C11   1.276       .  A
O6          Ni24   1.891       .  S
O6            C8   1.267       .  A
Ni7          O12   1.896       .  S
Ni7        O2242   1.910       .  S
C8           O18   1.278       .  A
C8         C1060   1.489       .  S
O9          Ni25   1.923       .  S
O9         C2247   1.276       .  A
O10       Ni2239   1.911   1_455  S
O10          C15   1.275       .  A
C11        C1105   1.490       .  S
O12          C14   1.265       .  A
O13         Ni24   1.930       .  S
C14          O20   1.270       .  A
C14        C1069   1.475       .  S
C15        O2241   1.273   1_455  A
C15        C1093   1.472       .  S
H16          O17   0.966       .  S
O17         Ni25   1.906       .  S
O17         Ni19   1.917       .  S
O17         Ni24   1.891       .  S
O18         Ni19   1.950       .  S
Ni19         O23   1.944       .  S
Ni19         O21   1.927       .  S
O20         Ni25   1.933       .  S
C22          O23   1.274       .  A
C22        C1045   1.485       .  S
O27         Ni33   1.897       .  S
O27          C48   1.259       .  A
O28         Ni51   1.900       .  S
O28          C37   1.266       .  A
O29         Ni33   1.903       .  S
O29         Ni51   1.903       .  S
O29         Ni45   1.920       .  S
O29          H52   0.965       .  S
C30          O47   1.281       .  A
C30          O39   1.283       .  A
C30        C1021   1.491       .  S
O31         Ni50   1.952       .  S
O31          C37   1.276       .  A
O32         Ni50   1.895       .  S
O32          C34   1.268       .  A
Ni33         O36   1.918       .  S
Ni33         O38   1.894       .  S
C34          O44   1.279       .  A
C34        C1009   1.484       .  S
O35         Ni51   1.912       .  S
O35          C41   1.274       .  A
O36          C41   1.277       .  A
C37        C1108   1.502       .  S
O38          C40   1.263       .  A
O39         Ni50   1.931       .  S
C40          O46   1.269       .  A
C40        C1000   1.475       .  S
C41        C3265   1.468   1_455  S
H42          O43   0.966       .  S
O43         Ni51   1.910       .  S
O43         Ni45   1.916       .  S
O43         Ni50   1.890       .  S
O44         Ni45   1.946       .  S
Ni45         O49   1.940       .  S
Ni45         O47   1.931       .  S
O46         Ni51   1.933       .  S
C48          O49   1.274       .  A
C48         C985   1.484       .  S
O53         Ni59   1.894       .  S
O53          C74   1.260       .  A
O54         Ni77   1.886       .  S
O54          C63   1.265       .  A
O55         Ni59   1.893       .  S
O55         Ni77   1.896       .  S
O55         Ni71   1.930       .  S
O55          H78   0.966       .  S
C56          O73   1.284       .  A
C56          O65   1.286       .  A
C56        C1012   1.492       .  S
O57         Ni76   1.961       .  S
O57          C63   1.279       .  A
O58         Ni76   1.895       .  S
O58          C60   1.270       .  A
Ni59         O64   1.899       .  S
Ni59       O1178   1.913       .  S
C60          O70   1.279       .  A
C60         C961   1.495       .  S
O61       Ni1193   1.934       .  S
O61          C67   1.279   1_565  A
O62       Ni1175   1.911   1_545  S
O62          C67   1.276       .  A
C63         C973   1.501       .  S
O64          C66   1.267       .  A
O65         Ni76   1.937       .  S
C66          O72   1.269       .  A
C66         C949   1.483       .  S
C67         C997   1.481       .  S
H68          O69   0.966       .  S
O69         Ni77   1.903       .  S
O69         Ni71   1.906       .  S
O69         Ni76   1.882       .  S
O70         Ni71   1.952       .  S
Ni71         O75   1.937       .  S
Ni71         O73   1.938       .  S
O72         Ni77   1.933       .  S
C74          O75   1.276       .  A
C74         C937   1.474       .  S
Ni77       O1177   1.934       .  S
O79         Ni85   1.894       .  S
O79         C100   1.256       .  A
O80        Ni103   1.892       .  S
O80          C89   1.264       .  A
O81         Ni85   1.892       .  S
O81        Ni103   1.896       .  S
O81         Ni97   1.924       .  S
O81         H104   0.966       .  S
C82          O99   1.284       .  A
C82          O91   1.289       .  A
C82         C925   1.493       .  S
O83        Ni102   1.966       .  S
O83          C89   1.281       .  A
O84        Ni102   1.894       .  S
O84          C86   1.269       .  A
Ni85         O88   1.911       .  S
Ni85         O90   1.889       .  S
C86          O96   1.278       .  A
C86        C1084   1.475       .  S
O87        Ni103   1.925       .  S
O87          C93   1.278       .  A
O88          C93   1.278       .  A
C89         C976   1.491       .  S
O90          C92   1.263       .  A
O91        Ni102   1.948       .  S
C92          O98   1.267       .  A
C92        C1096   1.468       .  S
C93        C2032   1.479   1_545  S
H94          O95   0.966       .  S
O95        Ni103   1.904       .  S
O95         Ni97   1.904       .  S
O95        Ni102   1.880       .  S
O96         Ni97   1.943       .  S
Ni97        O101   1.944       .  S
Ni97         O99   1.932       .  S
O98        Ni103   1.926       .  S
C100        O101   1.277       .  A
C100        C901   1.493       .  S
O105       Ni111   1.896       .  S
O105        C126   1.259       .  A
O106       Ni129   1.884       .  S
O106        C115   1.262       .  A
O107       Ni111   1.902       .  S
O107       Ni129   1.901       .  S
O107       Ni123   1.929       .  S
O107        H130   0.966       .  S
C108        O125   1.284       .  A
C108        O117   1.282       .  A
C108        C964   1.496       .  S
O109       Ni128   1.954       .  S
O109        C115   1.276       .  A
O110       Ni128   1.891       .  S
O110        C112   1.268       .  A
Ni111       O114   1.915       .  S
Ni111       O116   1.895       .  S
C112        O122   1.281       .  A
C112       C1024   1.490       .  S
O113       Ni129   1.928       .  S
O113        C119   1.277       .  A
O114        C119   1.277       .  A
C115        C889   1.494       .  S
O116        C118   1.264       .  A
O117       Ni128   1.928       .  S
C118        O124   1.265       .  A
C118       C2152   1.470       .  S
C119        C952   1.485       .  S
H120        O121   0.966       .  S
O121       Ni129   1.905       .  S
O121       Ni123   1.912       .  S
O121       Ni128   1.887       .  S
O122       Ni123   1.954       .  S
Ni123       O127   1.946       .  S
Ni123       O125   1.937       .  S
O124       Ni129   1.922       .  S
C126        O127   1.278       .  A
C126        C877   1.487       .  S
O131       Ni137   1.893       .  S
O131        C152   1.257       .  A
O132       Ni155   1.893       .  S
O132        C141   1.265       .  A
O133       Ni137   1.902       .  S
O133       Ni155   1.903       .  S
O133       Ni149   1.925       .  S
O133        H156   0.965       .  S
C134        O151   1.279       .  A
C134        O143   1.283       .  A
C134       C1057   1.487       .  S
O135       Ni154   1.952       .  S
O135        C141   1.278       .  A
O136       Ni154   1.896       .  S
O136        C138   1.269       .  A
Ni137       O140   1.907       .  S
Ni137       O142   1.893       .  S
C138        O148   1.283       .  A
C138        C928   1.489       .  S
O139       Ni155   1.939       .  S
O139        C145   1.282       .  A
O140        C145   1.276       .  A
C141        C892   1.485       .  S
O142        C144   1.263       .  A
O143       Ni154   1.934       .  S
C144        O150   1.264       .  A
C144       C3145   1.466       .  S
C145       C1072   1.486       .  S
H146        O147   0.965       .  S
O147       Ni155   1.912       .  S
O147       Ni149   1.908       .  S
O147       Ni154   1.885       .  S
O148       Ni149   1.959       .  S
Ni149       O153   1.939       .  S
Ni149       O151   1.924       .  S
O150       Ni155   1.919       .  S
C152        O153   1.275       .  A
C152        C865   1.476       .  S
O157       Ni163   1.893       .  S
O157        C178   1.259       .  A
O158       Ni181   1.884       .  S
O158        C167   1.262       .  A
O159       Ni163   1.900       .  S
O159       Ni181   1.898       .  S
O159      Ni2407   1.930   1_455  S
O159        H182   0.966       .  S
C160        O177   1.282       .  A
C160        O169   1.286       .  A
C160        C820   1.484       .  S
O161       Ni180   1.963       .  S
O161       C2399   1.278       .  A
O162       Ni180   1.898       .  S
O162        C164   1.268       .  A
Ni163       O166   1.912       .  S
Ni163       O168   1.905       .  S
C164        O174   1.279       .  A
C164        C841   1.490       .  S
O165       Ni181   1.924       .  S
O165        C171   1.274       .  A
O166        C171   1.275       .  A
C167       O2393   1.278   1_455  A
C167        C856   1.500       .  S
O168        C170   1.267       .  A
O169       Ni180   1.939       .  S
C170        O176   1.270       .  A
C170        C832   1.477       .  S
C171        C805   1.476       .  S
H172       O2405   0.967       .  S
O173       Ni175   1.912       .  S
O173       Ni180   1.897       .  S
O173      Ni2413   1.901       .  S
O173       H2404   0.967       .  S
O174       Ni175   1.952       .  S
Ni175       O179   1.939       .  S
Ni175       O177   1.928       .  S
Ni175      O2391   1.924       .  S
O176       Ni181   1.930       .  S
C178       O2411   1.276   1_455  A
C178        C796   1.477       .  S
O179       C2410   1.274       .  A
Ni181      O2405   1.900   1_455  S
O183       Ni189   1.897       .  S
O183        C204   1.258       .  A
O184       Ni207   1.892       .  S
O184        C193   1.264       .  A
O185       Ni189   1.887       .  S
O185       Ni207   1.894       .  S
O185       Ni201   1.921       .  S
O185        H208   0.966       .  S
C186        O203   1.283       .  A
C186        O195   1.284       .  A
C186        C745   1.492       .  S
O187       Ni206   1.957       .  S
O187        C193   1.277       .  A
O188       Ni206   1.891       .  S
O188        C190   1.269       .  A
Ni189       O192   1.913       .  S
Ni189       O194   1.894       .  S
C190        O200   1.281       .  A
C190       C3001   1.494   1_455  S
O191       Ni207   1.934       .  S
O191        C197   1.280       .  A
O192        C197   1.279       .  A
C193        C853   1.485       .  S
O194        C196   1.264       .  A
O195       Ni206   1.935       .  S
C196        O202   1.268       .  A
C196        C781   1.478       .  S
C197        C760   1.484       .  S
H198        O199   0.966       .  S
O199       Ni207   1.910       .  S
O199       Ni201   1.910       .  S
O199       Ni206   1.883       .  S
O200       Ni201   1.956       .  S
Ni201       O205   1.945       .  S
Ni201       O203   1.936       .  S
O202       Ni207   1.933       .  S
C204        O205   1.279       .  A
C204        C988   1.495       .  S
O209       Ni215   1.903       .  S
O209        C230   1.263       .  A
O210       Ni233   1.886       .  S
O210        C219   1.262       .  A
O211       Ni215   1.886       .  S
O211       Ni233   1.893       .  S
O211       Ni227   1.924       .  S
O211        H234   0.969       .  S
C212        O229   1.286       .  A
C212        O221   1.283       .  A
C212       C1888   1.492       .  S
O213       Ni232   1.955       .  S
O213        C219   1.278       .  A
O214       Ni232   1.897       .  S
O214        C216   1.268       .  A
Ni215       O218   1.916       .  S
Ni215       O220   1.896       .  S
C216        O226   1.277       .  A
C216        C712   1.486       .  S
O217       Ni233   1.925       .  S
O217        C223   1.277       .  A
O218        C223   1.277       .  A
C219        C736   1.488       .  S
O220        C222   1.266       .  A
O221       Ni232   1.928       .  S
C222        O228   1.268       .  A
C222        C721   1.476       .  S
C223        C784   1.487       .  S
H224        O225   0.965       .  S
O225       Ni233   1.896       .  S
O225       Ni227   1.911       .  S
O225       Ni232   1.883       .  S
O226       Ni227   1.945       .  S
Ni227       O231   1.948       .  S
Ni227       O229   1.937       .  S
O228       Ni233   1.926       .  S
C230        O231   1.280       .  A
C230        C880   1.497       .  S
O235       Ni241   1.892       .  S
O235        C256   1.257       .  A
O236       Ni259   1.893       .  S
O236        C245   1.265       .  A
O237       Ni241   1.900       .  S
O237       Ni259   1.900       .  S
O237       Ni253   1.921       .  S
O237        H260   0.968       .  S
C238        O255   1.283       .  A
C238        O247   1.285       .  A
C238        C697   1.487       .  S
O239       Ni258   1.949       .  S
O239        C245   1.277       .  A
O240       Ni258   1.894       .  S
O240        C242   1.269       .  A
Ni241       O244   1.911       .  S
Ni241       O246   1.896       .  S
C242        O252   1.279       .  A
C242        C817   1.485       .  S
O243       Ni259   1.923       .  S
O243        C249   1.278       .  A
O244        C249   1.277       .  A
C245        C733   1.495       .  S
O246        C248   1.264       .  A
O247       Ni258   1.931       .  S
C248        O254   1.267       .  A
C248        C808   1.481       .  S
C249        C685   1.475       .  S
H250        O251   0.966       .  S
O251       Ni259   1.904       .  S
O251       Ni253   1.902       .  S
O251       Ni258   1.876       .  S
O252       Ni253   1.952       .  S
Ni253       O257   1.937       .  S
Ni253       O255   1.929       .  S
O254       Ni259   1.929       .  S
C256        O257   1.273       .  A
C256        C676   1.490       .  S
O261       Ni267   1.900       .  S
O261       C1398   1.263       .  A
O262       Ni285   1.898       .  S
O262        C271   1.268       .  A
O263       Ni267   1.881       .  S
O263       Ni285   1.893       .  S
O263      Ni1395   1.921       .  S
O263       H1402   0.966       .  S
C264        O281   1.283       .  A
C264        O273   1.285       .  A
C264        C844   1.491       .  S
O265       Ni284   1.957       .  S
O265       C1387   1.279   1_545  A
O266       Ni284   1.896       .  S
O266        C268   1.269       .  A
Ni267       O270   1.909       .  S
Ni267       O272   1.897       .  S
C268        O278   1.279       .  A
C268        C700   1.483       .  S
O269       Ni285   1.943       .  S
O269        C275   1.282       .  A
O270        C275   1.276       .  A
C271       O1381   1.277       .  A
C271        C664   1.483       .  S
O272        C274   1.268       .  A
O273       Ni284   1.940       .  S
C274        O280   1.268       .  A
C274        C688   1.473       .  S
C275        C829   1.490       .  S
H276        O277   0.966       .  S
O277       Ni279   1.906       .  S
O277       Ni284   1.879       .  S
O277      Ni1401   1.906   1_545  S
O278       Ni279   1.944       .  S
Ni279       O283   1.941       .  S
Ni279       O281   1.936       .  S
Ni279      O1379   1.929   1_545  S
O280       Ni285   1.927       .  S
C282        O283   1.278       .  A
C282       O1377   1.262   1_545  A
C282        C652   1.481       .  S
Ni285      O1393   1.907       .  S
H286       O1379   0.966   1_545  S
O287       Ni293   1.894       .  S
O287        C308   1.257       .  A
O288       Ni311   1.894       .  S
O288        C297   1.268       .  A
O289       Ni293   1.889       .  S
O289       Ni311   1.898       .  S
O289       Ni305   1.922       .  S
O289        H312   0.967       .  S
C290        O307   1.281       .  A
C290        O299   1.283       .  A
C290       C2941   1.485   1_455  S
O291       Ni310   1.945       .  S
O291        C297   1.276       .  A
O292       Ni310   1.901       .  S
O292        C294   1.269       .  A
Ni293       O296   1.904       .  S
Ni293       O298   1.885       .  S
C294        O304   1.276       .  A
C294       C1864   1.482       .  S
O295       Ni311   1.928       .  S
O295        C301   1.278       .  A
O296        C301   1.277       .  A
C297        C661   1.496       .  S
O298        C300   1.263       .  A
O299       Ni310   1.931       .  S
C300        O306   1.272       .  A
C300        C757   1.481       .  S
C301        C724   1.471       .  S
H302        O303   0.966       .  S
O303       Ni311   1.907       .  S
O303       Ni305   1.904       .  S
O303       Ni310   1.882       .  S
O304       Ni305   1.940       .  S
Ni305       O309   1.934       .  S
Ni305       O307   1.927       .  S
O306       Ni311   1.940       .  S
C308        O309   1.271       .  A
C308        C940   1.487       .  S
O313       Ni319   1.896       .  S
O313        C334   1.258       .  A
O314       Ni337   1.890       .  S
O314        C323   1.262       .  A
O315       Ni319   1.896       .  S
O315       Ni337   1.896       .  S
O315       Ni331   1.919       .  S
O315        H338   0.966       .  S
C316        O333   1.281       .  A
C316        O325   1.282       .  A
C316       C2821   1.491       .  S
O317       Ni336   1.959       .  S
O317        C323   1.279       .  A
O318       Ni336   1.898       .  S
O318        C320   1.269       .  A
Ni319       O322   1.909       .  S
Ni319       O324   1.894       .  S
C320        O330   1.278       .  A
C320        C613   1.491       .  S
O321       Ni337   1.919       .  S
O321        C327   1.277       .  A
O322        C327   1.277       .  A
C323        C640   1.501       .  S
O324        C326   1.264       .  A
O325       Ni336   1.928       .  S
C326        O332   1.267       .  A
C326        C628   1.479       .  S
C327        C601   1.479       .  S
H328        O329   0.966       .  S
O329       Ni337   1.899       .  S
O329       Ni331   1.915       .  S
O329       Ni336   1.888       .  S
O330       Ni331   1.947       .  S
Ni331       O335   1.943       .  S
Ni331       O333   1.924       .  S
O332       Ni337   1.928       .  S
C334        O335   1.275       .  A
C334        C868   1.490       .  S
O339       Ni345   1.889       .  S
O339        C360   1.257       .  A
O340       Ni363   1.894       .  S
O340        C349   1.266       .  A
O341       Ni345   1.890       .  S
O341       Ni363   1.890       .  S
O341       Ni357   1.930       .  S
O341        H364   0.965       .  S
C342        O359   1.284       .  A
C342        O351   1.286       .  A
C342        C553   1.498       .  S
O343       Ni362   1.960       .  S
O343        C349   1.281       .  A
O344       Ni362   1.896       .  S
O344        C346   1.268       .  A
Ni345       O348   1.908       .  S
Ni345       O350   1.891       .  S
C346        O356   1.278       .  A
C346        C580   1.496       .  S
O347       Ni363   1.928       .  S
O347        C353   1.279       .  A
O348        C353   1.276       .  A
C349        C637   1.491       .  S
O350        C352   1.263       .  A
O351       Ni362   1.940       .  S
C352        O358   1.269       .  A
C352        C568   1.478       .  S
C353        C544   1.483       .  S
H354        O355   0.966       .  S
O355       Ni363   1.906       .  S
O355       Ni357   1.901       .  S
O355       Ni362   1.877       .  S
O356       Ni357   1.944       .  S
Ni357       O361   1.941       .  S
Ni357       O359   1.931       .  S
O358       Ni363   1.926       .  S
C360        O361   1.274       .  A
C360        C673   1.480       .  S
O365       Ni371   1.894       .  S
O365        C386   1.258       .  A
O366       Ni389   1.894       .  S
O366        C375   1.266       .  A
O367       Ni371   1.893       .  S
O367       Ni389   1.896       .  S
O367       Ni383   1.927       .  S
O367        H390   0.966       .  S
C368        O385   1.283       .  A
C368        O377   1.284       .  A
C368        C508   1.492       .  S
O369       Ni388   1.956       .  S
O369        C375   1.278       .  A
O370       Ni388   1.898       .  S
O370        C372   1.270       .  A
Ni371       O374   1.910       .  S
Ni371       O376   1.889       .  S
C372        O382   1.277       .  A
C372       C1708   1.490   1_545  S
O373       Ni389   1.926       .  S
O373        C379   1.278       .  A
O374        C379   1.276       .  A
C375        C532   1.503       .  S
O376        C378   1.265       .  A
O377       Ni388   1.934       .  S
C378        O384   1.268       .  A
C378        C604   1.474       .  S
C379        C517   1.479       .  S
H380        O381   0.966       .  S
O381       Ni389   1.908       .  S
O381       Ni383   1.910       .  S
O381       Ni388   1.884       .  S
O382       Ni383   1.945       .  S
Ni383       O387   1.940       .  S
Ni383       O385   1.934       .  S
O384       Ni389   1.927       .  S
C386        O387   1.275       .  A
C386        C904   1.482       .  S
O391       Ni397   1.890       .  S
O391        C412   1.256       .  A
O392       Ni415   1.902       .  S
O392        C401   1.267       .  A
O393       Ni397   1.890       .  S
O393       Ni415   1.894       .  S
O393      Ni1525   1.921   1_545  S
O393        H416   0.966       .  S
C394        O411   1.285       .  A
C394        O403   1.283       .  A
C394        C577   1.494       .  S
O395       Ni414   1.951       .  S
O395       C1517   1.277       .  A
O396       Ni414   1.895       .  S
O396        C398   1.268       .  A
Ni397       O400   1.905       .  S
Ni397       O402   1.890       .  S
C398        O408   1.276       .  A
C398        C484   1.490       .  S
O399       Ni415   1.928       .  S
O399        C405   1.280       .  A
O400        C405   1.279       .  A
C401       O1511   1.278   1_545  A
C401        C529   1.487       .  S
O402        C404   1.263       .  A
O403       Ni414   1.922       .  S
C404        O410   1.272       .  A
C404        C496   1.480       .  S
C405        C565   1.485       .  S
H406       O1523   0.966   1_545  S
O407       Ni409   1.913       .  S
O407       Ni414   1.882       .  S
O407      Ni1531   1.899       .  S
O407       H1522   0.967       .  S
O408       Ni409   1.943       .  S
Ni409       O413   1.944       .  S
Ni409       O411   1.940       .  S
Ni409      O1509   1.926       .  S
O410       Ni415   1.941       .  S
C412       O1529   1.273   1_545  A
C412        C649   1.489       .  S
O413       C1528   1.277       .  A
Ni415      O1523   1.907   1_545  S
O417       Ni423   1.901       .  S
O417       C2670   1.259       .  A
O418       Ni441   1.891       .  S
O418        C427   1.264       .  A
O419       Ni423   1.896       .  S
O419       Ni441   1.896       .  S
O419      Ni2667   1.927       .  S
O419       H2674   0.966       .  S
C420        O437   1.284       .  A
C420        O429   1.284       .  A
C420        C481   1.493       .  S
O421       Ni440   1.954       .  S
O421       C2659   1.277       .  A
O422       Ni440   1.893       .  S
O422        C424   1.269       .  A
Ni423       O426   1.919       .  S
Ni423       O428   1.893       .  S
C424        O434   1.283       .  A
C424        C556   1.493       .  S
O425       Ni441   1.925       .  S
O425        C431   1.278       .  A
O426        C431   1.279       .  A
C427       O2653   1.276       .  A
C427        C469   1.495       .  S
O428        C430   1.264       .  A
O429       Ni440   1.929       .  S
C430        O436   1.267       .  A
C430        C541   1.474       .  S
C431        C493   1.480       .  S
H432        O433   0.966       .  S
O433       Ni435   1.908       .  S
O433       Ni440   1.881       .  S
O433      Ni2673   1.904   1_455  S
O434       Ni435   1.959       .  S
Ni435       O439   1.947       .  S
Ni435       O437   1.938       .  S
Ni435      O2651   1.924   1_455  S
O436       Ni441   1.926       .  S
C438        O439   1.279       .  A
C438       O2649   1.260   1_455  A
C438        C793   1.488       .  S
Ni441      O2665   1.904       .  S
H442       O2651   0.966   1_455  S
O443       Ni449   1.894       .  S
O443        C464   1.259       .  A
O444       Ni467   1.895       .  S
O444        C453   1.264       .  A
O445       Ni449   1.888       .  S
O445       Ni467   1.896       .  S
O445       Ni461   1.922       .  S
O445        H468   0.966       .  S
C446        O463   1.283       .  A
C446        O455   1.282       .  A
C446       C1732   1.489   1_545  S
O447       Ni466   1.950       .  S
O447        C453   1.277       .  A
O448       Ni466   1.902       .  S
O448        C450   1.269       .  A
Ni449       O452   1.906       .  S
Ni449       O454   1.892       .  S
C450        O460   1.276       .  A
C450       C2737   1.486       .  S
O451       Ni467   1.935       .  S
O451        C457   1.280       .  A
O452        C457   1.278       .  A
C453        C472   1.481       .  S
O454        C456   1.264       .  A
O455       Ni466   1.933       .  S
C456        O462   1.269       .  A
C456        C520   1.476       .  S
C457        C625   1.484       .  S
H458        O459   0.966       .  S
O459       Ni467   1.912       .  S
O459       Ni461   1.916       .  S
O459       Ni466   1.892       .  S
O460       Ni461   1.941       .  S
Ni461       O465   1.947       .  S
Ni461       O463   1.932       .  S
O462       Ni467   1.934       .  S
C464        O465   1.276       .  A
C464       C1048   1.497       .  S
C469        C470   1.411       .  A
C469       C2706   1.418       .  A
C470        C471   1.402       .  A
C470        H475   1.084       .  S
C471        C472   1.410       .  A
C471        C478   1.444       .  S
C472        C473   1.402       .  A
C473       C2706   1.401       .  A
C473       H2708   1.082       .  S
C474       C2701   1.417   1_455  A
C474       C2705   1.404   1_455  A
C474        C477   1.444       .  S
H476       C2705   1.082   1_455  S
C477        N479   1.158       .  T
C478        N480   1.157       .  T
C481        C482   1.405       .  A
C481        C486   1.416       .  A
C482        C483   1.397       .  A
C482        H487   1.085       .  S
C483        C484   1.414       .  A
C483        C490   1.445       .  S
C484        C485   1.408       .  A
C485        C486   1.410       .  A
C485        H488   1.084       .  S
C486        C489   1.442       .  S
C489        N491   1.157       .  T
C490        N492   1.157       .  T
C493        C494   1.408       .  A
C493        C498   1.410       .  A
C494        C495   1.405       .  A
C494        H499   1.085       .  S
C495        C496   1.410       .  A
C495        C502   1.443       .  S
C496        C497   1.406       .  A
C497        C498   1.399       .  A
C497        H500   1.085       .  S
C498        C501   1.445       .  S
C501        N503   1.157       .  T
C502        N504   1.157       .  T
C505       C2682   1.486   1_455  S
C505        C506   1.404       .  A
C505        C510   1.413       .  A
C506        C507   1.407       .  A
C506        H511   1.085       .  S
C507        C508   1.416       .  A
C507        C514   1.440       .  S
C508        C509   1.404       .  A
C509        C510   1.400       .  A
C509        H512   1.085       .  S
C510        C513   1.443       .  S
C513        N515   1.156       .  T
C514        N516   1.156       .  T
C517        C518   1.406       .  A
C517        C522   1.412       .  A
C518        C519   1.403       .  A
C518        H523   1.085       .  S
C519        C520   1.411       .  A
C519        C526   1.440       .  S
C520        C521   1.403       .  A
C521        C522   1.396       .  A
C521        H524   1.085       .  S
C522        C525   1.444       .  S
C525        N527   1.157       .  T
C526        N528   1.156       .  T
C529        C530   1.404       .  A
C529        C534   1.410       .  A
C530        C531   1.406       .  A
C530        H535   1.084       .  S
C531        C532   1.420       .  A
C531        C538   1.444       .  S
C532        C533   1.412       .  A
C533        C534   1.404       .  A
C533        H536   1.084       .  S
C534        C537   1.444       .  S
C537        N539   1.157       .  T
C538        N540   1.158       .  T
C541        C542   1.402       .  A
C541        C546   1.409       .  A
C542        C543   1.395       .  A
C542        H547   1.085       .  S
C543        C544   1.414       .  A
C543        C550   1.445       .  S
C544        C545   1.410       .  A
C545        C546   1.403       .  A
C545        H548   1.085       .  S
C546        C549   1.444       .  S
C549        N551   1.157       .  T
C550        N552   1.157       .  T
C553        C554   1.410       .  A
C553        C558   1.416       .  A
C554        C555   1.409       .  A
C554        H559   1.084       .  S
C555        C556   1.412       .  A
C555        C562   1.441       .  S
C556        C557   1.408       .  A
C557        C558   1.401       .  A
C557        H560   1.085       .  S
C558        C561   1.445       .  S
C561        N563   1.157       .  T
C562        N564   1.157       .  T
C565        C566   1.404       .  A
C565        C570   1.416       .  A
C566        C567   1.391       .  A
C566        H571   1.085       .  S
C567        C568   1.415       .  A
C567        C574   1.446       .  S
C568        C569   1.403       .  A
C569        C570   1.402       .  A
C569        H572   1.085       .  S
C570        C573   1.441       .  S
C573        N575   1.156       .  T
C574        N576   1.157       .  T
C577        C578   1.403       .  A
C577        C582   1.415       .  A
C578        C579   1.393       .  A
C578        H583   1.085       .  S
C579        C580   1.419       .  A
C579        C586   1.445       .  S
C580        C581   1.411       .  A
C581        C582   1.412       .  A
C581        H584   1.084       .  S
C582        C585   1.443       .  S
C585        N587   1.157       .  T
C586        N588   1.157       .  T
C589       C2548   1.493   1_455  S
C589        C590   1.411       .  A
C589        C594   1.417       .  A
C590        C591   1.410       .  A
C590        H595   1.084       .  S
C591        C592   1.414       .  A
C591        C598   1.443       .  S
C592       C1488   1.491       .  S
C592        C593   1.405       .  A
C593        C594   1.392       .  A
C593       H1712   1.086       .  S
C594        C597   1.446       .  S
H596       C1709   1.086       .  S
C597       N2831   1.157       .  T
C598        N600   1.158       .  T
N599       C2829   1.157       .  T
C601        C602   1.408       .  A
C601        C606   1.411       .  A
C602        C603   1.402       .  A
C602        H607   1.083       .  S
C603        C604   1.410       .  A
C603        C610   1.444       .  S
C604        C605   1.403       .  A
C605        C606   1.392       .  A
C605        H608   1.085       .  S
C606        C609   1.445       .  S
C609        N611   1.157       .  T
C610        N612   1.157       .  T
C613        C614   1.407       .  A
C613        C618   1.416       .  A
C614        C615   1.409       .  A
C614        H619   1.084       .  S
C615        C616   1.415       .  A
C615       C1738   1.443       .  S
C616       C1562   1.488       .  S
C616        C617   1.403       .  A
C617        C618   1.400       .  A
C617        H620   1.085       .  S
C618        C621   1.445       .  S
C621        N623   1.157       .  T
C622       C1731   1.442   1_545  S
C622        N624   1.156       .  T
C625        C626   1.403       .  A
C625        C630   1.415       .  A
C626        C627   1.393       .  A
C626        H631   1.085       .  S
C627        C628   1.412       .  A
C627        C634   1.445       .  S
C628        C629   1.405       .  A
C629        C630   1.406       .  A
C629        H632   1.084       .  S
C630        C633   1.441       .  S
C633        N635   1.157       .  T
C634        N636   1.157       .  T
C637        C638   1.403       .  A
C637        C642   1.414       .  A
C638        C639   1.405       .  A
C638        H643   1.085       .  S
C639        C640   1.423       .  A
C639        C646   1.445       .  S
C640        C641   1.407       .  A
C641        C642   1.404       .  A
C641        H644   1.084       .  S
C642        C645   1.442       .  S
C645        N647   1.157       .  T
C646        N648   1.158       .  T
C649        C650   1.415       .  A
C649        C654   1.409   1_545  A
C650        C651   1.401   1_556  A
C650        H655   1.085       .  S
C651        C652   1.404       .  A
C651        C658   1.442       .  S
C652        C653   1.411   1_545  A
C653        C654   1.400   1_554  A
C653        H656   1.085       .  S
C654       C1773   1.444       .  S
C657       C1770   1.443       .  S
C657        N659   1.157       .  T
C658        N660   1.157       .  T
C661        C662   1.410       .  A
C661        C666   1.420       .  A
C662        C663   1.401       .  A
C662        H667   1.084       .  S
C663        C664   1.408       .  A
C663        C670   1.444       .  S
C664        C665   1.403       .  A
C665        C666   1.402       .  A
C665       H1784   1.082       .  S
C666       C1785   1.445       .  S
H668       C1781   1.083   1_545  S
C669       C1782   1.444       .  S
C669        N671   1.157   1_565  T
C670        N672   1.157       .  T
C673        C674   1.411       .  A
C673        C678   1.403       .  A
C674        C675   1.398   1_556  A
C674        H679   1.085       .  S
C675        C676   1.408       .  A
C675        C682   1.443       .  S
C676        C677   1.418       .  A
C677        C678   1.401   1_554  A
C677        H680   1.084       .  S
C678        C681   1.444       .  S
C681        N683   1.157       .  T
C682        N684   1.157       .  T
C685        C686   1.407       .  A
C685        C690   1.414       .  A
C686        C687   1.410       .  A
C686        H691   1.084       .  S
C687        C688   1.413       .  A
C687        C694   1.443       .  S
C688        C689   1.398       .  A
C689        C690   1.384       .  A
C689        H692   1.086       .  S
C690        C693   1.447       .  S
C693        N695   1.157       .  T
C694        N696   1.157       .  T
C697        C698   1.404       .  A
C697        C702   1.417       .  A
C698        C699   1.398       .  A
C698        H703   1.085       .  S
C699        C700   1.413       .  A
C699        C706   1.444       .  S
C700        C701   1.403       .  A
C701        C702   1.405       .  A
C701        H704   1.083       .  S
C702        C705   1.443       .  S
C705        N707   1.157       .  T
C706        N708   1.157       .  T
C709       C2522   1.488       .  S
C709        C710   1.404       .  A
C709        C714   1.415       .  A
C710        C711   1.399       .  A
C710        H715   1.085       .  S
C711        C712   1.414       .  A
C711        C718   1.445       .  S
C712        C713   1.406       .  A
C713        C714   1.407       .  A
C713        H716   1.085       .  S
C714       C2949   1.444       .  S
C717       C2946   1.444   1_455  S
C717        N719   1.157       .  T
C718        N720   1.157       .  T
C721        C722   1.410       .  A
C721        C726   1.412       .  A
C722        C723   1.410       .  A
C722        H727   1.084       .  S
C723        C724   1.409       .  A
C723        C730   1.442       .  S
C724        C725   1.401       .  A
C725        C726   1.386       .  A
C725        H728   1.086       .  S
C726        C729   1.447       .  S
C729        N731   1.157       .  T
C730        N732   1.157       .  T
C733        C734   1.409       .  A
C733        C738   1.417       .  A
C734        C735   1.400       .  A
C734        H739   1.084       .  S
C735        C736   1.414       .  A
C735        C742   1.445       .  S
C736        C737   1.406       .  A
C737        C738   1.404       .  A
C737        H740   1.084       .  S
C738        C741   1.444       .  S
C741        N743   1.157       .  T
C742        N744   1.157       .  T
C745        C746   1.406       .  A
C745        C750   1.417       .  A
C746        C747   1.401       .  A
C746        H751   1.085       .  S
C747        C748   1.410       .  A
C747        C754   1.444       .  S
C748       C1410   1.483   1_545  S
C748        C749   1.403       .  A
C749        C750   1.407       .  A
C749        H752   1.083       .  S
C750        C753   1.443       .  S
C753        N755   1.157       .  T
C754        N756   1.157       .  T
C757        C758   1.404       .  A
C757        C762   1.414       .  A
C758        C759   1.407       .  A
C758        H763   1.084       .  S
C759        C760   1.414       .  A
C759        C766   1.440       .  S
C760        C761   1.402       .  A
C761        C762   1.394       .  A
C761        H764   1.085       .  S
C762        C765   1.446       .  S
C765        N767   1.157       .  T
C766        N768   1.156       .  T
C769       C2422   1.498       .  S
C769        C770   1.406       .  A
C769        C774   1.415       .  A
C770        C771   1.397       .  A
C770        H775   1.085       .  S
C771        C772   1.417       .  A
C771        C778   1.446       .  S
C772       C1328   1.500   1_545  S
C772        C773   1.412       .  A
C773        C774   1.416       .  A
C773        H776   1.084       .  S
C774       C3009   1.442       .  S
C777       C3006   1.442       .  S
C777        N779   1.157   1_655  T
C778        N780   1.157       .  T
C781        C782   1.404       .  A
C781        C786   1.409       .  A
C782        C783   1.398       .  A
C782        H787   1.085       .  S
C783        C784   1.412       .  A
C783        C790   1.444       .  S
C784        C785   1.410       .  A
C785        C786   1.403       .  A
C785        H788   1.085       .  S
C786        C789   1.441       .  S
C789        N791   1.156       .  T
C790        N792   1.157       .  T
C793        C798   1.409       .  A
C793       C3026   1.414   1_455  A
C794        C795   1.402   1_556  A
C794       C3025   1.411       .  A
C794        H799   1.085       .  S
C795       C3028   1.404       .  A
C795        C802   1.444       .  S
C796        C797   1.408       .  A
C796       C3027   1.403   1_455  A
C797        C798   1.404   1_554  A
C797        H800   1.085       .  S
C798        C801   1.443       .  S
C801        N803   1.157       .  T
C802        N804   1.157       .  T
C805        C806   1.404       .  A
C805        C810   1.408       .  A
C806        C807   1.403       .  A
C806        H811   1.085       .  S
C807        C808   1.415       .  A
C807        C814   1.444       .  S
C808        C809   1.405       .  A
C809        C810   1.397       .  A
C809        H812   1.085       .  S
C810        C813   1.444       .  S
C813        N815   1.157       .  T
C814        N816   1.157       .  T
C817        C818   1.404       .  A
C817        C822   1.411       .  A
C818        C819   1.391       .  A
C818        H823   1.086       .  S
C819        C820   1.409       .  A
C819        C826   1.446       .  S
C820        C821   1.411       .  A
C821        C822   1.416       .  A
C821        H824   1.084       .  S
C822        C825   1.441       .  S
C825        N827   1.157       .  T
C826        N828   1.157       .  T
C829        C830   1.407       .  A
C829        C834   1.421       .  A
C830        C831   1.399       .  A
C830        H835   1.085       .  S
C831        C832   1.410       .  A
C831        C838   1.445       .  S
C832        C833   1.400       .  A
C833        C834   1.405       .  A
C833        H836   1.085       .  S
C834        C837   1.444       .  S
C837        N839   1.157       .  T
C838        N840   1.157       .  T
C841        C842   1.407       .  A
C841        C846   1.414       .  A
C842        C843   1.410       .  A
C842        H847   1.085       .  S
C843        C844   1.415       .  A
C843        C850   1.443       .  S
C844        C845   1.404       .  A
C845        C846   1.402       .  A
C845        H848   1.085       .  S
C846        C849   1.443       .  S
C849        N851   1.157       .  T
C850        N852   1.157       .  T
C853        C854   1.406       .  A
C853        C858   1.409       .  A
C854        C855   1.408       .  A
C854        H859   1.085       .  S
C855        C856   1.419       .  A
C855       C3094   1.443   1_455  S
C856        C857   1.411       .  A
C857        C858   1.400       .  A
C857        H860   1.084       .  S
C858        C861   1.444       .  S
C861        N863   1.157       .  T
C862       C3087   1.443       .  S
C862        N864   1.157       .  T
C865        C866   1.410       .  A
C865        C870   1.402       .  A
C866        C867   1.402       .  A
C866        H871   1.085       .  S
C867        C868   1.410       .  A
C867        C874   1.444       .  S
C868        C869   1.416       .  A
C869        C870   1.401       .  A
C869        H872   1.084       .  S
C870        C873   1.444       .  S
C873        N875   1.157       .  T
C874        N876   1.157       .  T
C877        C878   1.413       .  A
C877        C882   1.404       .  A
C878        C879   1.404       .  A
C878        H883   1.085       .  S
C879        C880   1.411       .  A
C879        C886   1.444       .  S
C880        C881   1.417       .  A
C881        C882   1.404       .  A
C881        H884   1.084       .  S
C882        C885   1.444       .  S
C885        N887   1.157       .  T
C886        N888   1.158       .  T
C889        C890   1.409       .  A
C889        C894   1.418       .  A
C890        C891   1.398       .  A
C890        H895   1.085       .  S
C891        C892   1.411       .  A
C891        C898   1.445       .  S
C892        C893   1.404       .  A
C893        C894   1.405       .  A
C893        H896   1.082       .  S
C894        C897   1.444       .  S
C897        N899   1.157       .  T
C898        N900   1.157       .  T
C901        C902   1.400       .  A
C901        C906   1.430       .  A
C902        C903   1.400       .  A
C902        H907   1.085       .  S
C903        C904   1.421       .  A
C903        C910   1.445       .  S
C904        C905   1.394       .  A
C905        C906   1.400       .  A
C905        H908   1.085       .  S
C906        C909   1.445       .  S
C909        N911   1.158       .  T
C910        N912   1.157       .  T
C913       C2376   1.464   1_455  S
C913        C914   1.398       .  A
C913        C918   1.409       .  A
C914        C915   1.397       .  A
C914        H919   1.085   1_455  S
C915        C916   1.415       .  A
C915        C922   1.442       .  S
C916       C1209   1.471       .  S
C916        C917   1.402       .  A
C917        C918   1.396       .  A
C917        H920   1.085       .  S
C918       C3153   1.444       .  S
C921       C3150   1.445       .  S
C921        N923   1.157       .  T
C922        N924   1.156       .  T
C925        C926   1.402       .  A
C925        C930   1.419       .  A
C926        C927   1.402       .  A
C926        H931   1.085       .  S
C927        C928   1.414       .  A
C927        C934   1.443       .  S
C928        C929   1.406       .  A
C929        C930   1.411       .  A
C929        H932   1.085       .  S
C930        C933   1.444       .  S
C933        N935   1.158       .  T
C934        N936   1.157       .  T
C937        C938   1.409       .  A
C937        C942   1.402       .  A
C938        C939   1.401       .  A
C938        H943   1.085       .  S
C939        C940   1.410       .  A
C939        C946   1.444       .  S
C940        C941   1.414       .  A
C941        C942   1.399       .  A
C941        H944   1.085       .  S
C942        C945   1.443       .  S
C945        N947   1.157       .  T
C946        N948   1.157       .  T
C949       C3182   1.403   1_455  A
C949       C3186   1.413   1_455  A
C950        C951   1.396       .  A
C950       C3181   1.405       .  A
C950       H3187   1.085       .  S
C951        C952   1.410       .  A
C951        C958   1.445       .  S
C952        C953   1.408       .  A
C953        C954   1.408       .  A
C953        H956   1.085       .  S
C954       C3181   1.414       .  A
C954        C957   1.441       .  S
H955       C3182   1.085       .  S
C957       N3191   1.157       .  T
C958        N960   1.157       .  T
N959       C3189   1.157       .  T
C961        C962   1.405       .  A
C961        C966   1.415       .  A
C962        C963   1.396       .  A
C962        H967   1.085       .  S
C963        C964   1.416       .  A
C963        C970   1.446       .  S
C964        C965   1.410       .  A
C965        C966   1.412       .  A
C965        H968   1.084       .  S
C966        C969   1.442       .  S
C969        N971   1.157       .  T
C970        N972   1.157       .  T
C973        C974   1.408       .  A
C973       C2094   1.418       .  A
C974       C2091   1.400       .  A
C974        H979   1.081       .  S
C975        C976   1.412       .  A
C975       C2090   1.401   1_545  A
C975       C2098   1.444       .  S
C976        C977   1.406       .  A
C977        C978   1.409   1_545  A
C977        H980   1.085       .  S
C978       C2089   1.420       .  A
C978        C981   1.444       .  S
C981        N983   1.158       .  T
C982       C2091   1.444       .  S
C982        N984   1.157       .  T
C985        C986   1.395       .  A
C985        C990   1.420       .  A
C986        C987   1.402       .  A
C986        H991   1.085       .  S
C987        C988   1.430       .  A
C987        C994   1.446       .  S
C988        C989   1.400       .  A
C989        C990   1.401       .  A
C989        H992   1.085       .  S
C990        C993   1.445       .  S
C993        N995   1.157       .  T
C994        N996   1.158       .  T
C997        C998   1.405       .  A
C997       C1002   1.415       .  A
C998        C999   1.400       .  A
C998       H1003   1.085       .  S
C999       C1000   1.411       .  A
C999       C1006   1.444       .  S
C1000      C1001   1.399       .  A
C1001      C1002   1.400       .  A
C1001      H1004   1.084       .  S
C1002      C1005   1.440       .  S
C1005      N1007   1.156   1_545  T
C1006      N1008   1.157       .  T
C1009      C1010   1.404       .  A
C1009      C1014   1.412       .  A
C1010      C1011   1.408       .  A
C1010      H1015   1.085       .  S
C1011      C1012   1.417       .  A
C1011      C1018   1.440       .  S
C1012      C1013   1.405       .  A
C1013      C1014   1.400       .  A
C1013      H1016   1.085       .  S
C1014      C1017   1.445       .  S
C1017      N1019   1.157       .  T
C1018      N1020   1.156       .  T
C1021      C1022   1.409       .  A
C1021      C1026   1.413       .  A
C1022      C1023   1.410       .  A
C1022      H1027   1.085       .  S
C1023      C1024   1.414       .  A
C1023      C1030   1.443       .  S
C1024      C1025   1.407       .  A
C1025      C1026   1.399       .  A
C1025      H1028   1.085       .  S
C1026      C1029   1.445       .  S
C1029      N1031   1.157       .  T
C1030      N1032   1.157       .  T
C1033      C2273   1.472       .  S
C1033      C1034   1.400       .  A
C1033      C1038   1.414       .  A
C1034      C1035   1.393       .  A
C1034      H1039   1.085       .  S
C1035      C1036   1.413       .  A
C1035      C1042   1.445       .  S
C1036      C1234   1.473   1_545  S
C1036      C1037   1.402       .  A
C1037      C1038   1.403       .  A
C1037      H2156   1.085   1_545  S
C1038      C3273   1.443       .  S
H1040      C2153   1.085       .  S
C1041      C3270   1.443       .  S
C1041      N1043   1.157   1_655  T
C1042      N1044   1.157       .  T
C1045      C1046   1.411       .  A
C1045      C1050   1.404       .  A
C1046      C1047   1.403       .  A
C1046      H1051   1.085       .  S
C1047      C1048   1.411       .  A
C1047      C1054   1.443       .  S
C1048      C1049   1.417       .  A
C1049      C1050   1.402       .  A
C1049      H1052   1.084       .  S
C1050      C1053   1.443       .  S
C1053      N1055   1.157       .  T
C1054      N1056   1.157       .  T
C1057      C1058   1.407       .  A
C1057      C1062   1.411       .  A
C1058      C1059   1.408       .  A
C1058      H1063   1.085       .  S
C1059      C1060   1.416       .  A
C1059      C1066   1.443       .  S
C1060      C1061   1.406       .  A
C1061      C1062   1.399       .  A
C1061      H1064   1.085       .  S
C1062      C1065   1.444       .  S
C1065      N1067   1.157       .  T
C1066      N1068   1.157       .  T
C1069      C1074   1.412   1_545  A
C1069      C2186   1.400   1_545  A
C1070      C1071   1.405       .  A
C1070      C2185   1.402       .  A
C1070      H1075   1.085       .  S
C1071      C1072   1.416       .  A
C1071      C1078   1.439       .  S
C1072      C1073   1.405       .  A
C1073      C2190   1.396       .  A
C1073      H1076   1.085       .  S
C1074      C2189   1.399       .  A
C1074      C1077   1.445       .  S
C1077      N1079   1.157   1_565  T
C1078      N1080   1.156       .  T
C1081      C1082   1.410       .  A
C1081      C1086   1.410       .  A
C1082      C1083   1.413       .  A
C1082      H1087   1.084       .  S
C1083      C1084   1.408       .  A
C1083      C1090   1.441       .  S
C1084      C1085   1.402       .  A
C1085      C1086   1.390       .  A
C1085      H1088   1.086       .  S
C1086      C1089   1.446       .  S
C1089      N1091   1.157       .  T
C1090      N1092   1.157       .  T
C1093      C1094   1.400       .  A
C1093      C1098   1.416       .  A
C1094      C1095   1.393       .  A
C1094      H1099   1.085       .  S
C1095      C1096   1.411       .  A
C1095      C1102   1.445       .  S
C1096      C1097   1.401       .  A
C1097      C1098   1.401       .  A
C1097      H1100   1.085       .  S
C1098      C1101   1.445       .  S
C1101      N1103   1.157       .  T
C1102      N1104   1.157       .  T
C1105      C1106   1.405       .  A
C1105      C1110   1.410       .  A
C1106      C3339   1.407       .  A
C1106      H1111   1.085       .  S
C1107      C1108   1.418       .  A
C1107      C3338   1.406       .  A
C1107      C1114   1.444       .  S
C1108      C1109   1.411       .  A
C1109      C3342   1.405   1_455  A
C1109      H1112   1.082       .  S
C1110      C3341   1.404       .  A
C1110      C1113   1.444       .  S
C1113      N1115   1.157       .  T
C1114      N1116   1.157       .  T
O1117     Ni1123   1.892       .  S
O1117      C1138   1.258       .  A
O1118     Ni1141   1.899       .  S
O1118      C1127   1.266       .  A
O1119     Ni1123   1.893       .  S
O1119     Ni1141   1.898       .  S
O1119     Ni1135   1.927       .  S
O1119      H1142   0.966       .  S
C1120      O1137   1.281       .  A
C1120      O1129   1.282       .  A
C1120      C2197   1.475       .  S
O1121     Ni1140   1.951       .  S
O1121      C1127   1.276       .  A
O1122     Ni1140   1.893       .  S
O1122      C1124   1.268       .  A
Ni1123     O3358   1.911       .  S
Ni1123     O1128   1.896       .  S
C1124      O1134   1.278       .  A
C1124      C2176   1.492       .  S
O1125     Ni1141   1.922       .  S
O1125      C3363   1.276       .  A
O1126     Ni3355   1.909   1_455  S
O1126      C1131   1.277       .  A
C1127      C2221   1.488       .  S
O1128      C1130   1.265       .  A
O1129     Ni1140   1.926       .  S
C1130      O1136   1.271       .  A
C1130      C2185   1.478       .  S
C1131      O3357   1.275   1_455  A
C1131      C2209   1.482       .  S
H1132      O1133   0.966       .  S
O1133     Ni1141   1.901       .  S
O1133     Ni1135   1.912       .  S
O1133     Ni1140   1.885       .  S
O1134     Ni1135   1.950       .  S
Ni1135     O1139   1.947       .  S
Ni1135     O1137   1.927       .  S
O1136     Ni1141   1.933       .  S
C1138      O1139   1.276       .  A
C1138      C2161   1.483       .  S
O1143     Ni1149   1.902       .  S
O1143      C1164   1.259       .  A
O1144     Ni1167   1.891       .  S
O1144      C1153   1.264       .  A
O1145     Ni1149   1.898       .  S
O1145     Ni1167   1.905       .  S
O1145     Ni1161   1.919       .  S
O1145      H1168   0.965       .  S
C1146      O1163   1.282       .  A
C1146      O1155   1.283       .  A
C1146      C2137   1.479       .  S
O1147     Ni1166   1.955       .  S
O1147      C1153   1.277       .  A
O1148     Ni1166   1.903       .  S
O1148      C1150   1.269       .  A
Ni1149     O1152   1.913       .  S
Ni1149     O1154   1.893       .  S
C1150      O1160   1.279       .  A
C1150      C2125   1.485       .  S
O1151     Ni1167   1.922       .  S
O1151      C1157   1.276       .  A
O1152      C1157   1.277       .  A
C1153      C2224   1.497       .  S
O1154      C1156   1.264       .  A
O1155     Ni1166   1.931       .  S
C1156      O1162   1.268       .  A
C1156      C2116   1.474       .  S
C1157      C4381   1.472   1_455  S
H1158      O1159   0.966       .  S
O1159     Ni1167   1.901       .  S
O1159     Ni1161   1.913       .  S
O1159     Ni1166   1.892       .  S
O1160     Ni1161   1.944       .  S
Ni1161     O1165   1.952       .  S
Ni1161     O1163   1.925       .  S
O1162     Ni1167   1.928       .  S
C1164      O1165   1.278       .  A
C1164      C2101   1.502       .  S
O1169     Ni1175   1.892       .  S
O1169      C1190   1.260       .  A
O1170     Ni1193   1.894       .  S
O1170      C1179   1.269       .  A
O1171     Ni1175   1.886       .  S
O1171     Ni1193   1.894       .  S
O1171     Ni1187   1.933       .  S
O1171      H1194   0.966       .  S
C1172      O1189   1.289       .  A
C1172      O1181   1.283       .  A
C1172      C2128   1.493       .  S
O1173     Ni1192   1.954       .  S
O1173      C1179   1.279       .  A
O1174     Ni1192   1.902       .  S
O1174      C1176   1.271       .  A
Ni1175     O1180   1.897       .  S
C1176      O1186   1.276       .  A
C1176      C2077   1.493       .  S
O1177      C1183   1.279       .  A
O1178      C1183   1.276       .  A
C1179      C2089   1.502       .  S
O1180      C1182   1.267       .  A
O1181     Ni1192   1.930       .  S
C1182      O1188   1.272       .  A
C1182      C2065   1.486       .  S
C1183      C2113   1.482       .  S
H1184      O1185   0.966       .  S
O1185     Ni1193   1.905       .  S
O1185     Ni1187   1.907       .  S
O1185     Ni1192   1.880       .  S
O1186     Ni1187   1.943       .  S
Ni1187     O1191   1.947       .  S
Ni1187     O1189   1.949       .  S
O1188     Ni1193   1.940       .  S
C1190      O1191   1.279       .  A
C1190      C2053   1.487       .  S
O1195     Ni1201   1.893       .  S
O1195      C1216   1.258       .  A
O1196     Ni1219   1.892       .  S
O1196      C1205   1.266       .  A
O1197     Ni1201   1.890       .  S
O1197     Ni1219   1.897       .  S
O1197     Ni1213   1.926       .  S
O1197      H1220   0.966       .  S
C1198      O1215   1.287       .  A
C1198      O1207   1.287       .  A
C1198      C2041   1.492       .  S
O1199     Ni1218   1.957       .  S
O1199      C1205   1.279       .  A
O1200     Ni1218   1.895       .  S
O1200      C1202   1.269       .  A
Ni1201     O1204   1.911       .  S
Ni1201     O1206   1.890       .  S
C1202      O1212   1.273       .  A
C1202      C2200   1.472       .  S
O1203     Ni1219   1.920       .  S
O1203      C1209   1.275       .  A
O1204      C1209   1.276       .  A
C1205      C2092   1.494       .  S
O1206      C1208   1.264       .  A
O1207     Ni1218   1.936       .  S
C1208      O1214   1.269       .  A
C1208      C2212   1.473       .  S
H1210      O1211   0.966       .  S
O1211     Ni1219   1.897       .  S
O1211     Ni1213   1.899       .  S
O1211     Ni1218   1.876       .  S
O1212     Ni1213   1.935       .  S
Ni1213     O1217   1.942       .  S
Ni1213     O1215   1.940       .  S
O1214     Ni1219   1.928       .  S
C1216      O1217   1.275       .  A
C1216      C2017   1.491       .  S
O1221     Ni1227   1.894       .  S
O1221      C1242   1.257       .  A
O1222     Ni1245   1.896       .  S
O1222      C1231   1.266       .  A
O1223     Ni1227   1.894       .  S
O1223     Ni1245   1.895       .  S
O1223     Ni1239   1.930       .  S
O1223      H1246   0.966       .  S
C1224      O1241   1.284       .  A
C1224      O1233   1.282       .  A
C1224      C2080   1.495       .  S
O1225     Ni1244   1.949       .  S
O1225      C1231   1.276       .  A
O1226     Ni1244   1.894       .  S
O1226      C1228   1.268       .  A
Ni1227     O1230   1.917       .  S
Ni1227     O1232   1.889       .  S
C1228      O1238   1.278       .  A
C1228      C2140   1.480       .  S
O1229     Ni1245   1.925       .  S
O1229      C1235   1.278       .  A
O1230      C1235   1.278       .  A
C1231      C2005   1.500       .  S
O1232      C1234   1.263       .  A
O1233     Ni1244   1.928       .  S
C1234      O1240   1.268       .  A
C1235      C2068   1.489       .  S
H1236      O1237   0.966       .  S
O1237     Ni1245   1.908       .  S
O1237     Ni1239   1.914       .  S
O1237     Ni1244   1.886       .  S
O1238     Ni1239   1.943       .  S
Ni1239     O1243   1.952       .  S
Ni1239     O1241   1.938       .  S
O1240     Ni1245   1.928       .  S
C1242      O1243   1.277       .  A
C1242      C1993   1.496       .  S
O1247     Ni1253   1.891       .  S
O1247      C1268   1.257       .  A
O1248     Ni1271   1.904       .  S
O1248      C1257   1.267       .  A
O1249     Ni1253   1.904       .  S
O1249     Ni1271   1.907       .  S
O1249     Ni1265   1.934       .  S
O1249      H1272   0.965       .  S
C1250      O1267   1.285       .  A
C1250      O1259   1.283       .  A
C1250      C2173   1.492       .  S
O1251     Ni1270   1.951       .  S
O1251      C1257   1.278       .  A
O1252     Ni1270   1.901       .  S
O1252      C1254   1.269       .  A
Ni1253     O1256   1.912       .  S
Ni1253     O1258   1.895       .  S
C1254      O1264   1.280       .  A
C1254      C2044   1.489       .  S
O1255     Ni1271   1.928       .  S
O1255      C1261   1.277       .  A
O1256      C1261   1.275       .  A
C1257      C2008   1.492       .  S
O1258      C1260   1.264       .  A
O1259     Ni1270   1.931       .  S
C1260      O1266   1.269       .  A
C1260      C4261   1.472       .  S
C1261      C2188   1.481       .  S
H1262      O1263   0.966       .  S
O1263     Ni1271   1.906       .  S
O1263     Ni1265   1.910       .  S
O1263     Ni1270   1.885       .  S
O1264     Ni1265   1.950       .  S
Ni1265     O1269   1.951       .  S
Ni1265     O1267   1.937       .  S
O1266     Ni1271   1.927       .  S
C1268      O1269   1.277       .  A
C1268      C1981   1.483       .  S
O1273     Ni1279   1.890       .  S
O1273      C1294   1.257       .  A
O1274     Ni1297   1.890       .  S
O1274      C1283   1.265       .  A
O1275     Ni1279   1.899       .  S
O1275     Ni1297   1.897       .  S
O1275     Ni3523   1.927   1_455  S
O1275      H1298   0.966       .  S
C1276      O1293   1.283       .  A
C1276      O1285   1.286       .  A
C1276      C1936   1.492       .  S
O1277     Ni1296   1.967       .  S
O1277      C3515   1.279       .  A
O1278     Ni1296   1.897       .  S
O1278      C1280   1.268       .  A
Ni1279     O1282   1.909       .  S
Ni1279     O1284   1.904       .  S
C1280      O1290   1.278       .  A
C1280      C1957   1.486       .  S
O1281     Ni1297   1.923       .  S
O1281      C1287   1.275       .  A
O1282      C1287   1.275       .  A
C1283      O3509   1.282   1_455  A
C1283      C1972   1.508       .  S
O1284      C1286   1.266       .  A
O1285     Ni1296   1.941       .  S
C1286      O1292   1.273       .  A
C1286      C1948   1.484       .  S
C1287      C1921   1.475       .  S
H1288      O3521   0.967       .  S
O1289     Ni3529   1.905       .  S
O1289     Ni1291   1.916       .  S
O1289     Ni1296   1.896       .  S
O1289      H3520   0.967       .  S
O1290     Ni1291   1.948       .  S
Ni1291     O1295   1.945       .  S
Ni1291     O1293   1.935       .  S
Ni1291     O3507   1.927       .  S
O1292     Ni1297   1.942       .  S
C1294      O3527   1.273   1_455  A
C1294      C1912   1.472       .  S
O1295      C3526   1.276       .  A
Ni1297     O3521   1.903   1_455  S
O1299     Ni1305   1.903       .  S
O1299      C1320   1.260       .  A
O1300     Ni1323   1.900       .  S
O1300      C1309   1.266       .  A
O1301     Ni1305   1.894       .  S
O1301     Ni1323   1.905       .  S
O1301     Ni1317   1.920       .  S
O1301      H1324   0.966       .  S
C1302      O1319   1.283       .  A
C1302      O1311   1.286       .  A
C1302      C1861   1.492       .  S
O1303     Ni1322   1.967       .  S
O1303      C1309   1.280       .  A
O1304     Ni1322   1.898       .  S
O1304      C1306   1.270       .  A
Ni1305     O1308   1.914       .  S
Ni1305     O1310   1.898       .  S
C1306      O1316   1.281       .  A
C1306      C4117   1.497   1_455  S
O1307     Ni1323   1.926       .  S
O1307      C1313   1.277       .  A
O1308      C1313   1.278       .  A
C1309      C1969   1.495       .  S
O1310      C1312   1.265       .  A
O1311     Ni1322   1.943       .  S
C1312      O1318   1.271       .  A
C1312      C1897   1.484       .  S
C1313      C1876   1.479       .  S
H1314      O1315   0.966       .  S
O1315     Ni1323   1.906       .  S
O1315     Ni1317   1.914       .  S
O1315     Ni1322   1.885       .  S
O1316     Ni1317   1.958       .  S
Ni1317     O1321   1.952       .  S
Ni1317     O1319   1.932       .  S
O1318     Ni1323   1.938       .  S
C1320      O1321   1.280       .  A
C1320      C2104   1.502       .  S
O1325     Ni1331   1.892       .  S
O1325      C1346   1.259       .  A
O1326     Ni1349   1.889       .  S
O1326      C1335   1.265       .  A
O1327     Ni1331   1.882       .  S
O1327     Ni1349   1.884       .  S
O1327     Ni1343   1.928       .  S
O1327      H1350   0.970       .  S
C1328      O1345   1.285       .  A
C1328      O1337   1.283       .  A
O1329     Ni1348   1.951       .  S
O1329      C1335   1.277       .  A
O1330     Ni1348   1.896       .  S
O1330      C1332   1.267       .  A
Ni1331     O1334   1.913       .  S
Ni1331     O1336   1.894       .  S
C1332      O1342   1.276       .  A
C1332      C1828   1.483       .  S
O1333     Ni1349   1.939       .  S
O1333      C1339   1.282       .  A
O1334      C1339   1.278       .  A
C1335      C1852   1.484       .  S
O1336      C1338   1.265       .  A
O1337     Ni1348   1.935       .  S
C1338      O1344   1.271       .  A
C1338      C1837   1.479       .  S
C1339      C1900   1.491       .  S
H1340      O1341   0.965       .  S
O1341     Ni1349   1.908       .  S
O1341     Ni1343   1.912       .  S
O1341     Ni1348   1.887       .  S
O1342     Ni1343   1.941       .  S
Ni1343     O1347   1.942       .  S
Ni1343     O1345   1.938       .  S
O1344     Ni1349   1.937       .  S
C1346      O1347   1.277       .  A
C1346      C1996   1.487       .  S
O1351     Ni1357   1.893       .  S
O1351      C1372   1.258       .  A
O1352     Ni1375   1.891       .  S
O1352      C1361   1.265       .  A
O1353     Ni1357   1.900       .  S
O1353     Ni1375   1.897       .  S
O1353     Ni1369   1.918       .  S
O1353      H1376   0.968       .  S
C1354      O1371   1.282       .  A
C1354      O1363   1.285       .  A
C1354      C1813   1.485       .  S
O1355     Ni1374   1.949       .  S
O1355      C1361   1.277       .  A
O1356     Ni1374   1.893       .  S
O1356      C1358   1.269       .  A
Ni1357     O1360   1.917       .  S
Ni1357     O1362   1.894       .  S
C1358      O1368   1.282       .  A
C1358      C1933   1.491       .  S
O1359     Ni1375   1.919       .  S
O1359      C1365   1.278       .  A
O1360      C1365   1.277       .  A
C1361      C1849   1.494       .  S
O1362      C1364   1.263       .  A
O1363     Ni1374   1.930       .  S
C1364      O1370   1.267       .  A
C1364      C1924   1.483       .  S
C1365      C1801   1.471       .  S
H1366      O1367   0.966       .  S
O1367     Ni1375   1.903       .  S
O1367     Ni1369   1.900       .  S
O1367     Ni1374   1.874       .  S
O1368     Ni1369   1.959       .  S
Ni1369     O1373   1.935       .  S
Ni1369     O1371   1.926       .  S
O1370     Ni1375   1.933       .  S
C1372      O1373   1.273       .  A
C1372      C1792   1.489       .  S
O1377     Ni1383   1.898       .  S
O1378     Ni1401   1.895       .  S
O1378      C1387   1.265       .  A
O1379     Ni1383   1.886       .  S
O1379     Ni1401   1.891       .  S
C1380      O1397   1.282       .  A
C1380      O1389   1.283       .  A
C1380      C1960   1.485       .  S
O1381     Ni1400   1.948       .  S
O1382     Ni1400   1.895       .  S
O1382      C1384   1.268       .  A
Ni1383     O1386   1.914       .  S
Ni1383     O1388   1.895       .  S
C1384      O1394   1.278       .  A
C1384      C1816   1.482       .  S
O1385     Ni1401   1.940       .  S
O1385      C1391   1.281       .  A
O1386      C1391   1.279       .  A
C1387      C1780   1.484       .  S
O1388      C1390   1.265       .  A
O1389     Ni1400   1.935       .  S
C1390      O1396   1.265       .  A
C1390      C1804   1.463       .  S
C1391      C1945   1.495       .  S
H1392      O1393   0.966       .  S
O1393     Ni1395   1.908       .  S
O1393     Ni1400   1.882       .  S
O1394     Ni1395   1.946       .  S
Ni1395     O1399   1.942       .  S
Ni1395     O1397   1.931       .  S
O1396     Ni1401   1.919       .  S
C1398      O1399   1.279       .  A
C1398      C1768   1.487       .  S
O1403     Ni1409   1.890       .  S
O1403      C1424   1.256       .  A
O1404     Ni1427   1.898       .  S
O1404      C1413   1.267       .  A
O1405     Ni1409   1.892       .  S
O1405     Ni1427   1.897       .  S
O1405     Ni1421   1.927       .  S
O1405      H1428   0.967       .  S
C1406      O1423   1.283       .  A
C1406      O1415   1.283       .  A
C1406      C4057   1.488   1_455  S
O1407     Ni1426   1.950       .  S
O1407      C1413   1.277       .  A
O1408     Ni1426   1.902       .  S
O1408      C1410   1.270       .  A
Ni1409     O1412   1.911       .  S
Ni1409     O1414   1.883       .  S
C1410      O1420   1.276       .  A
O1411     Ni1427   1.926       .  S
O1411      C1417   1.278       .  A
O1412      C1417   1.278       .  A
C1413      C1777   1.500       .  S
O1414      C1416   1.261       .  A
O1415     Ni1426   1.931       .  S
C1416      O1422   1.270       .  A
C1416      C1873   1.479       .  S
C1417      C1840   1.472       .  S
H1418      O1419   0.966       .  S
O1419     Ni1427   1.911       .  S
O1419     Ni1421   1.912       .  S
O1419     Ni1426   1.886       .  S
O1420     Ni1421   1.939       .  S
Ni1421     O1425   1.949       .  S
Ni1421     O1423   1.934       .  S
O1422     Ni1427   1.938       .  S
C1424      O1425   1.274       .  A
C1424      C2056   1.494       .  S
O1429     Ni1435   1.888       .  S
O1429      C1450   1.255       .  A
O1430     Ni1453   1.895       .  S
O1430      C1439   1.264       .  A
O1431     Ni1435   1.896       .  S
O1431     Ni1453   1.894       .  S
O1431     Ni1447   1.928       .  S
O1431      H1454   0.966       .  S
C1432      O1449   1.285       .  A
C1432      O1441   1.283       .  A
C1432      C3937   1.493       .  S
O1433     Ni1452   1.955       .  S
O1433      C1439   1.279       .  A
O1434     Ni1452   1.899       .  S
O1434      C1436   1.270       .  A
Ni1435     O1438   1.913       .  S
Ni1435     O1440   1.890       .  S
C1436      O1446   1.278       .  A
C1436      C1729   1.485       .  S
O1437     Ni1453   1.925       .  S
O1437      C1443   1.279       .  A
O1438      C1443   1.277       .  A
C1439      C1756   1.500       .  S
O1440      C1442   1.263       .  A
O1441     Ni1452   1.929       .  S
C1442      O1448   1.266       .  A
C1442      C1744   1.473       .  S
C1443      C1717   1.476       .  S
H1444      O1445   0.966       .  S
O1445     Ni1453   1.906       .  S
O1445     Ni1447   1.912       .  S
O1445     Ni1452   1.884       .  S
O1446     Ni1447   1.942       .  S
Ni1447     O1451   1.956       .  S
Ni1447     O1449   1.934       .  S
O1448     Ni1453   1.923       .  S
C1450      O1451   1.277       .  A
C1450      C1984   1.495       .  S
O1455     Ni1461   1.890       .  S
O1455      C1476   1.258       .  A
O1456     Ni1479   1.889       .  S
O1456      C1465   1.263       .  A
O1457     Ni1461   1.900       .  S
O1457     Ni1479   1.900       .  S
O1457     Ni1473   1.930       .  S
O1457      H1480   0.966       .  S
C1458      O1475   1.285       .  A
C1458      O1467   1.286       .  A
C1458      C1669   1.500       .  S
O1459     Ni1478   1.961       .  S
O1459      C1465   1.280       .  A
O1460     Ni1478   1.894       .  S
O1460      C1462   1.267       .  A
Ni1461     O1464   1.912       .  S
Ni1461     O1466   1.895       .  S
C1462      O1472   1.279       .  A
C1462      C1696   1.493       .  S
O1463     Ni1479   1.925       .  S
O1463      C1469   1.276       .  A
O1464      C1469   1.275       .  A
C1465      C1753   1.488       .  S
O1466      C1468   1.264       .  A
O1467     Ni1478   1.937       .  S
C1468      O1474   1.268       .  A
C1468      C1684   1.475       .  S
C1469      C1660   1.476       .  S
H1470      O1471   0.966       .  S
O1471     Ni1479   1.903       .  S
O1471     Ni1473   1.901       .  S
O1471     Ni1478   1.881       .  S
O1472     Ni1473   1.948       .  S
Ni1473     O1477   1.936       .  S
Ni1473     O1475   1.936       .  S
O1474     Ni1479   1.925       .  S
C1476      O1477   1.274       .  A
C1476      C1789   1.473       .  S
O1481     Ni1487   1.894       .  S
O1481      C1502   1.260       .  A
O1482     Ni1505   1.891       .  S
O1482      C1491   1.262       .  A
O1483     Ni1487   1.893       .  S
O1483     Ni1505   1.891       .  S
O1483     Ni1499   1.919       .  S
O1483      H1506   0.966       .  S
C1484      O1501   1.281       .  A
C1484      O1493   1.282       .  A
C1484      C1624   1.490       .  S
O1485     Ni1504   1.957       .  S
O1485      C1491   1.277       .  A
O1486     Ni1504   1.892       .  S
O1486      C1488   1.270       .  A
Ni1487     O1490   1.911       .  S
Ni1487     O1492   1.895       .  S
C1488      O1498   1.277       .  A
O1489     Ni1505   1.918       .  S
O1489      C1495   1.278       .  A
O1490      C1495   1.277       .  A
C1491      C1648   1.501       .  S
O1492      C1494   1.264       .  A
O1493     Ni1504   1.937       .  S
C1494      O1500   1.267       .  A
C1494      C1720   1.472       .  S
C1495      C1633   1.475       .  S
H1496      O1497   0.966       .  S
O1497     Ni1505   1.911       .  S
O1497     Ni1499   1.917       .  S
O1497     Ni1504   1.892       .  S
O1498     Ni1499   1.943       .  S
Ni1499     O1503   1.938       .  S
Ni1499     O1501   1.931       .  S
O1500     Ni1505   1.923       .  S
C1502      O1503   1.276       .  A
C1502      C2020   1.481       .  S
O1507     Ni1513   1.903       .  S
O1507      C1528   1.261       .  A
O1508     Ni1531   1.901       .  S
O1508      C1517   1.265       .  A
O1509     Ni1513   1.895       .  S
O1509     Ni1531   1.902       .  S
O1509      H1532   0.966       .  S
C1510      O1527   1.281       .  A
C1510      O1519   1.284       .  A
C1510      C1693   1.493       .  S
O1511     Ni1530   1.954       .  S
O1512     Ni1530   1.901       .  S
O1512      C1514   1.269       .  A
Ni1513     O1516   1.915       .  S
Ni1513     O1518   1.894       .  S
C1514      O1524   1.278       .  A
C1514      C1600   1.495       .  S
O1515     Ni1531   1.922       .  S
O1515      C1521   1.275       .  A
O1516      C1521   1.277       .  A
C1517      C1645   1.486       .  S
O1518      C1520   1.266       .  A
O1519     Ni1530   1.931       .  S
C1520      O1526   1.269       .  A
C1520      C1612   1.477       .  S
C1521      C1681   1.483       .  S
O1523     Ni1525   1.912       .  S
O1523     Ni1530   1.885       .  S
O1524     Ni1525   1.949       .  S
Ni1525     O1529   1.939       .  S
Ni1525     O1527   1.928       .  S
O1526     Ni1531   1.928       .  S
C1528      C1765   1.495       .  S
O1533     Ni1539   1.900       .  S
O1533      C3786   1.260       .  A
O1534     Ni1557   1.892       .  S
O1534      C1543   1.263       .  A
O1535     Ni1539   1.895       .  S
O1535     Ni1557   1.895       .  S
O1535     Ni3783   1.918       .  S
O1535      H3790   0.966       .  S
C1536      O1553   1.283       .  A
C1536      O1545   1.283       .  A
C1536      C1597   1.498       .  S
O1537     Ni1556   1.955       .  S
O1537      C3775   1.277       .  A
O1538     Ni1556   1.892       .  S
O1538      C1540   1.270       .  A
Ni1539     O1542   1.912       .  S
Ni1539     O1544   1.896       .  S
C1540      O1550   1.282       .  A
C1540      C1672   1.492       .  S
O1541     Ni1557   1.922       .  S
O1541      C1547   1.279       .  A
O1542      C1547   1.278       .  A
C1543      O3769   1.278       .  A
C1543      C1585   1.503       .  S
O1544      C1546   1.263       .  A
O1545     Ni1556   1.929       .  S
C1546      O1552   1.266       .  A
C1546      C1657   1.475       .  S
C1547      C1609   1.479       .  S
H1548      O1549   0.966       .  S
O1549     Ni3789   1.907   1_455  S
O1549     Ni1551   1.910       .  S
O1549     Ni1556   1.883       .  S
O1550     Ni1551   1.956       .  S
Ni1551     O1555   1.938       .  S
Ni1551     O1553   1.938       .  S
Ni1551     O3767   1.924   1_455  S
O1552     Ni1557   1.926       .  S
C1554      O3765   1.261   1_455  A
C1554      O1555   1.277       .  A
C1554      C1909   1.480       .  S
Ni1557     O3781   1.912       .  S
H1558      O3767   0.966   1_455  S
O1559     Ni1565   1.896       .  S
O1559      C1580   1.258       .  A
O1560     Ni1583   1.897       .  S
O1560      C1569   1.265       .  A
O1561     Ni1565   1.892       .  S
O1561     Ni1583   1.896       .  S
O1561     Ni1577   1.919       .  S
O1561      H1584   0.966       .  S
C1562      O1579   1.282       .  A
C1562      O1571   1.284       .  A
O1563     Ni1582   1.958       .  S
O1563      C1569   1.278       .  A
O1564     Ni1582   1.899       .  S
O1564      C1566   1.269       .  A
Ni1565     O1568   1.906       .  S
Ni1565     O1570   1.891       .  S
C1566      O1576   1.279       .  A
C1566      C3853   1.486       .  S
O1567     Ni1583   1.927       .  S
O1567      C1573   1.278       .  A
O1568      C1573   1.278       .  A
C1569      C1588   1.487       .  S
O1570      C1572   1.264       .  A
O1571     Ni1582   1.938       .  S
C1572      O1578   1.268       .  A
C1572      C1636   1.473       .  S
C1573      C1741   1.481       .  S
H1574      O1575   0.966       .  S
O1575     Ni1583   1.906       .  S
O1575     Ni1577   1.914       .  S
O1575     Ni1582   1.887       .  S
O1576     Ni1577   1.949       .  S
Ni1577     O1581   1.946       .  S
Ni1577     O1579   1.927       .  S
O1578     Ni1583   1.931       .  S
C1580      O1581   1.277       .  A
C1580      C2164   1.494       .  S
C1585      C1586   1.413       .  A
C1585      C3822   1.419       .  A
C1586      C1587   1.402       .  A
C1586      H1591   1.084       .  S
C1587      C1588   1.409       .  A
C1587      C1594   1.444       .  S
C1588      C1589   1.405       .  A
C1589      C3822   1.408       .  A
C1589      H3824   1.083       .  S
C1590      C3817   1.418   1_455  A
C1590      C3821   1.406   1_455  A
C1590      C1593   1.444       .  S
H1592      C3821   1.084   1_455  S
C1593      N1595   1.158       .  T
C1594      N1596   1.157       .  T
C1597      C1598   1.405       .  A
C1597      C1602   1.418       .  A
C1598      C1599   1.399       .  A
C1598      H1603   1.085       .  S
C1599      C1600   1.415       .  A
C1599      C1606   1.445       .  S
C1600      C1601   1.408       .  A
C1601      C1602   1.412       .  A
C1601      H1604   1.084       .  S
C1602      C1605   1.442       .  S
C1605      N1607   1.157       .  T
C1606      N1608   1.157       .  T
C1609      C1610   1.406       .  A
C1609      C1614   1.412       .  A
C1610      C1611   1.402       .  A
C1610      H1615   1.084       .  S
C1611      C1612   1.410       .  A
C1611      C1618   1.440       .  S
C1612      C1613   1.404       .  A
C1613      C1614   1.394       .  A
C1613      H1616   1.085       .  S
C1614      C1617   1.445       .  S
C1617      N1619   1.157       .  T
C1618      N1620   1.156       .  T
C1621      C3798   1.485   1_455  S
C1621      C1622   1.402       .  A
C1621      C1626   1.413       .  A
C1622      C1623   1.406       .  A
C1622      H1627   1.083       .  S
C1623      C1624   1.415       .  A
C1623      C1630   1.441       .  S
C1624      C1625   1.404       .  A
C1625      C1626   1.404       .  A
C1625      H1628   1.085       .  S
C1626      C1629   1.443       .  S
C1629      N1631   1.157       .  T
C1630      N1632   1.156       .  T
C1633      C1634   1.406       .  A
C1633      C1638   1.411       .  A
C1634      C1635   1.401       .  A
C1634      H1639   1.084       .  S
C1635      C1636   1.409       .  A
C1635      C1642   1.442       .  S
C1636      C1637   1.404       .  A
C1637      C1638   1.395       .  A
C1637      H1640   1.086       .  S
C1638      C1641   1.446       .  S
C1641      N1643   1.157       .  T
C1642      N1644   1.157       .  T
C1645      C1646   1.404       .  A
C1645      C1650   1.409       .  A
C1646      C1647   1.405       .  A
C1646      H1651   1.084       .  S
C1647      C1648   1.418       .  A
C1647      C1654   1.443       .  S
C1648      C1649   1.412       .  A
C1649      C1650   1.403       .  A
C1649      H1652   1.084       .  S
C1650      C1653   1.443       .  S
C1653      N1655   1.157       .  T
C1654      N1656   1.157       .  T
C1657      C1658   1.402       .  A
C1657      C1662   1.413       .  A
C1658      C1659   1.395       .  A
C1658      H1663   1.085       .  S
C1659      C1660   1.409       .  A
C1659      C1666   1.444       .  S
C1660      C1661   1.407       .  A
C1661      C1662   1.406       .  A
C1661      H1664   1.085       .  S
C1662      C1665   1.445       .  S
C1665      N1667   1.157       .  T
C1666      N1668   1.157       .  T
C1669      C1670   1.412       .  A
C1669      C1674   1.417       .  A
C1670      C1671   1.411       .  A
C1670      H1675   1.084       .  S
C1671      C1672   1.413       .  A
C1671      C1678   1.442       .  S
C1672      C1673   1.406       .  A
C1673      C1674   1.398       .  A
C1673      H1676   1.086       .  S
C1674      C1677   1.445       .  S
C1677      N1679   1.157       .  T
C1678      N1680   1.157       .  T
C1681      C1682   1.404       .  A
C1681      C1686   1.418       .  A
C1682      C1683   1.396       .  A
C1682      H1687   1.085       .  S
C1683      C1684   1.411       .  A
C1683      C1690   1.445       .  S
C1684      C1685   1.401       .  A
C1685      C1686   1.401       .  A
C1685      H1688   1.085       .  S
C1686      C1689   1.443       .  S
C1689      N1691   1.157       .  T
C1690      N1692   1.157       .  T
C1693      C1694   1.402       .  A
C1693      C1698   1.417       .  A
C1694      C1695   1.395       .  A
C1694      H1699   1.085       .  S
C1695      C1696   1.418       .  A
C1695      C1702   1.444       .  S
C1696      C1697   1.409       .  A
C1697      C1698   1.411       .  A
C1697      H1700   1.085       .  S
C1698      C1701   1.444       .  S
C1701      N1703   1.157       .  T
C1702      N1704   1.157       .  T
C1705      C3664   1.494   1_455  S
C1705      C1706   1.408       .  A
C1705      C1710   1.417       .  A
C1706      C1707   1.409       .  A
C1706      H1711   1.084       .  S
C1707      C1708   1.414       .  A
C1707      C1714   1.441   1_565  S
C1708      C1709   1.404       .  A
C1709      C1710   1.397       .  A
C1710      C1713   1.445       .  S
C1713      N3947   1.157       .  T
C1714      N1716   1.157       .  T
N1715      C3945   1.157       .  T
C1717      C1718   1.405       .  A
C1717      C1722   1.410       .  A
C1718      C1719   1.401       .  A
C1718      H1723   1.083       .  S
C1719      C1720   1.410       .  A
C1719      C1726   1.444       .  S
C1720      C1721   1.403       .  A
C1721      C1722   1.396       .  A
C1721      H1724   1.085       .  S
C1722      C1725   1.444       .  S
C1725      N1727   1.157       .  T
C1726      N1728   1.157       .  T
C1729      C1730   1.405       .  A
C1729      C1734   1.413       .  A
C1730      C1731   1.407       .  A
C1730      H1735   1.085       .  S
C1731      C1732   1.415       .  A
C1732      C1733   1.405       .  A
C1733      C1734   1.401       .  A
C1733      H1736   1.085       .  S
C1734      C1737   1.445       .  S
C1737      N1739   1.157       .  T
C1738      N1740   1.157       .  T
C1741      C1742   1.404       .  A
C1741      C1746   1.416       .  A
C1742      C1743   1.392       .  A
C1742      H1747   1.085       .  S
C1743      C1744   1.412       .  A
C1743      C1750   1.446       .  S
C1744      C1745   1.402       .  A
C1745      C1746   1.402       .  A
C1745      H1748   1.085       .  S
C1746      C1749   1.442       .  S
C1749      N1751   1.157       .  T
C1750      N1752   1.157       .  T
C1753      C1754   1.403       .  A
C1753      C1758   1.412       .  A
C1754      C1755   1.404       .  A
C1754      H1759   1.085       .  S
C1755      C1756   1.421       .  A
C1755      C1762   1.444       .  S
C1756      C1757   1.408       .  A
C1757      C1758   1.404       .  A
C1757      H1760   1.084       .  S
C1758      C1761   1.443       .  S
C1761      N1763   1.157       .  T
C1762      N1764   1.157       .  T
C1765      C1766   1.416       .  A
C1765      C1770   1.411       .  A
C1766      C1767   1.403   1_556  A
C1766      H1771   1.084       .  S
C1767      C1768   1.405       .  A
C1767      C1774   1.443       .  S
C1768      C1769   1.411       .  A
C1769      C1770   1.403   1_554  A
C1769      H1772   1.085       .  S
C1773      N1775   1.157       .  T
C1774      N1776   1.157       .  T
C1777      C1778   1.412       .  A
C1777      C1782   1.419       .  A
C1778      C1779   1.404       .  A
C1778      H1783   1.084       .  S
C1779      C1780   1.409       .  A
C1779      C1786   1.444       .  S
C1780      C1781   1.402       .  A
C1781      C1782   1.404       .  A
C1785      N1787   1.158       .  T
C1786      N1788   1.157       .  T
C1789      C1790   1.410       .  A
C1789      C1794   1.401       .  A
C1790      C1791   1.402   1_556  A
C1790      H1795   1.085       .  S
C1791      C1792   1.410       .  A
C1791      C1798   1.444       .  S
C1792      C1793   1.417       .  A
C1793      C1794   1.399   1_554  A
C1793      H1796   1.084       .  S
C1794      C1797   1.444       .  S
C1797      N1799   1.157       .  T
C1798      N1800   1.158       .  T
C1801      C1802   1.406       .  A
C1801      C1806   1.415       .  A
C1802      C1803   1.407       .  A
C1802      H1807   1.084       .  S
C1803      C1804   1.410       .  A
C1803      C1810   1.443       .  S
C1804      C1805   1.395       .  A
C1805      C1806   1.385       .  A
C1805      H1808   1.087       .  S
C1806      C1809   1.445       .  S
C1809      N1811   1.157       .  T
C1810      N1812   1.157       .  T
C1813      C1814   1.403       .  A
C1813      C1818   1.417       .  A
C1814      C1815   1.397       .  A
C1814      H1819   1.085       .  S
C1815      C1816   1.413       .  A
C1815      C1822   1.443       .  S
C1816      C1817   1.403       .  A
C1817      C1818   1.404       .  A
C1817      H1820   1.082       .  S
C1818      C1821   1.445       .  S
C1821      N1823   1.157       .  T
C1822      N1824   1.157       .  T
C1825      C3638   1.480       .  S
C1825      C1826   1.402       .  A
C1825      C1830   1.412       .  A
C1826      C1827   1.399       .  A
C1826      H1831   1.085       .  S
C1827      C1828   1.414       .  A
C1827      C1834   1.445       .  S
C1828      C1829   1.406       .  A
C1829      C1830   1.404       .  A
C1829      H1832   1.085       .  S
C1830      C4065   1.442       .  S
C1833      C4062   1.442   1_455  S
C1833      N1835   1.157       .  T
C1834      N1836   1.157       .  T
C1837      C1838   1.410       .  A
C1837      C1842   1.413       .  A
C1838      C1839   1.411       .  A
C1838      H1843   1.084       .  S
C1839      C1840   1.410       .  A
C1839      C1846   1.442       .  S
C1840      C1841   1.399       .  A
C1841      C1842   1.387       .  A
C1841      H1844   1.086       .  S
C1842      C1845   1.446       .  S
C1845      N1847   1.157       .  T
C1846      N1848   1.157       .  T
C1849      C1850   1.410       .  A
C1849      C1854   1.418       .  A
C1850      C1851   1.398       .  A
C1850      H1855   1.084       .  S
C1851      C1852   1.410       .  A
C1851      C1858   1.445       .  S
C1852      C1853   1.406       .  A
C1853      C1854   1.404       .  A
C1853      H1856   1.085       .  S
C1854      C1857   1.444       .  S
C1857      N1859   1.158       .  T
C1858      N1860   1.157       .  T
C1861      C1862   1.406       .  A
C1861      C1866   1.417       .  A
C1862      C1863   1.402       .  A
C1862      H1867   1.085       .  S
C1863      C1864   1.409       .  A
C1863      C1870   1.443       .  S
C1864      C1865   1.403       .  A
C1865      C1866   1.407       .  A
C1865      H1868   1.085       .  S
C1866      C1869   1.441       .  S
C1869      N1871   1.156       .  T
C1870      N1872   1.157       .  T
C1873      C1874   1.404       .  A
C1873      C1878   1.414       .  A
C1874      C1875   1.405       .  A
C1874      H1879   1.085       .  S
C1875      C1876   1.414       .  A
C1875      C1882   1.441       .  S
C1876      C1877   1.401       .  A
C1877      C1878   1.394       .  A
C1877      H1880   1.085       .  S
C1878      C1881   1.446       .  S
C1881      N1883   1.157       .  T
C1882      N1884   1.156       .  T
C1885      C3538   1.494       .  S
C1885      C1886   1.405       .  A
C1885      C1890   1.416       .  A
C1886      C1887   1.397       .  A
C1886      H1891   1.085       .  S
C1887      C1888   1.416       .  A
C1887      C1894   1.446       .  S
C1888      C1889   1.407       .  A
C1889      C1890   1.411       .  A
C1889      H1892   1.084       .  S
C1890      C4125   1.441       .  S
C1893      C4122   1.441       .  S
C1893      N1895   1.157   1_655  T
C1894      N1896   1.157       .  T
C1897      C1898   1.405       .  A
C1897      C1902   1.410       .  A
C1898      C1899   1.399       .  A
C1898      H1903   1.085       .  S
C1899      C1900   1.414       .  A
C1899      C1906   1.444       .  S
C1900      C1901   1.409       .  A
C1901      C1902   1.404       .  A
C1901      H1904   1.085       .  S
C1902      C1905   1.439       .  S
C1905      N1907   1.156       .  T
C1906      N1908   1.157       .  T
C1909      C4142   1.412   1_455  A
C1909      C1914   1.408       .  A
C1910      C4141   1.412       .  A
C1910      C1911   1.402   1_556  A
C1910      H1915   1.085       .  S
C1911      C4144   1.404       .  A
C1911      C1918   1.443       .  S
C1912      C4143   1.403   1_455  A
C1912      C1913   1.407       .  A
C1913      C1914   1.401   1_554  A
C1913      H1916   1.085       .  S
C1914      C1917   1.443       .  S
C1917      N1919   1.157       .  T
C1918      N1920   1.157       .  T
C1921      C1922   1.404       .  A
C1921      C1926   1.409       .  A
C1922      C1923   1.402       .  A
C1922      H1927   1.085       .  S
C1923      C1924   1.416       .  A
C1923      C1930   1.444       .  S
C1924      C1925   1.406       .  A
C1925      C1926   1.395       .  A
C1925      H1928   1.085       .  S
C1926      C1929   1.445       .  S
C1929      N1931   1.157       .  T
C1930      N1932   1.157       .  T
C1933      C1934   1.406       .  A
C1933      C1938   1.412       .  A
C1934      C1935   1.393       .  A
C1934      H1939   1.086       .  S
C1935      C1936   1.412       .  A
C1935      C1942   1.446       .  S
C1936      C1937   1.413       .  A
C1937      C1938   1.419       .  A
C1937      H1940   1.084       .  S
C1938      C1941   1.441       .  S
C1941      N1943   1.157       .  T
C1942      N1944   1.157       .  T
C1945      C1946   1.405       .  A
C1945      C1950   1.422       .  A
C1946      C1947   1.400       .  A
C1946      H1951   1.085       .  S
C1947      C1948   1.413       .  A
C1947      C1954   1.444       .  S
C1948      C1949   1.402       .  A
C1949      C1950   1.409       .  A
C1949      H1952   1.085       .  S
C1950      C1953   1.444       .  S
C1953      N1955   1.157       .  T
C1954      N1956   1.157       .  T
C1957      C1958   1.406       .  A
C1957      C1962   1.414       .  A
C1958      C1959   1.407       .  A
C1958      H1963   1.085       .  S
C1959      C1960   1.413       .  A
C1959      C1966   1.442       .  S
C1960      C1961   1.403       .  A
C1961      C1962   1.401       .  A
C1961      H1964   1.085       .  S
C1962      C1965   1.444       .  S
C1965      N1967   1.157       .  T
C1966      N1968   1.157       .  T
C1969      C1970   1.407       .  A
C1969      C1974   1.411       .  A
C1970      C1971   1.412       .  A
C1970      H1975   1.085       .  S
C1971      C1972   1.419       .  A
C1971      C4210   1.443   1_455  S
C1972      C1973   1.412       .  A
C1973      C1974   1.405       .  A
C1973      H1976   1.084       .  S
C1974      C1977   1.444       .  S
C1977      N1979   1.157       .  T
C1978      C4203   1.443       .  S
C1978      N1980   1.157       .  T
C1981      C1982   1.412       .  A
C1981      C1986   1.403       .  A
C1982      C1983   1.405       .  A
C1982      H1987   1.085       .  S
C1983      C1984   1.410       .  A
C1983      C1990   1.444       .  S
C1984      C1985   1.417       .  A
C1985      C1986   1.403       .  A
C1985      H1988   1.084       .  S
C1986      C1989   1.444       .  S
C1989      N1991   1.157       .  T
C1990      N1992   1.158       .  T
C1993      C1994   1.419       .  A
C1993      C1998   1.408       .  A
C1994      C1995   1.401       .  A
C1994      H1999   1.084       .  S
C1995      C1996   1.404       .  A
C1995      C2002   1.444       .  S
C1996      C1997   1.413       .  A
C1997      C1998   1.401       .  A
C1997      H2000   1.085       .  S
C1998      C2001   1.441       .  S
C2001      N2003   1.156       .  T
C2002      N2004   1.157       .  T
C2005      C2006   1.410       .  A
C2005      C2010   1.420       .  A
C2006      C2007   1.404       .  A
C2006      H2011   1.084       .  S
C2007      C2008   1.413       .  A
C2007      C2014   1.444       .  S
C2008      C2009   1.404       .  A
C2009      C2010   1.404       .  A
C2009      H2012   1.083       .  S
C2010      C2013   1.445       .  S
C2013      N2015   1.158       .  T
C2014      N2016   1.157       .  T
C2017      C2018   1.416       .  A
C2017      C2022   1.409       .  A
C2018      C2019   1.399       .  A
C2018      H2023   1.084       .  S
C2019      C2020   1.402       .  A
C2019      C2026   1.442       .  S
C2020      C2021   1.412       .  A
C2021      C2022   1.402       .  A
C2021      H2024   1.085       .  S
C2022      C2025   1.443       .  S
C2025      N2027   1.157       .  T
C2026      N2028   1.157       .  T
C2029      C3492   1.473   1_455  S
C2029      C2030   1.401       .  A
C2029      C2034   1.412       .  A
C2030      C2031   1.402       .  A
C2030      H2035   1.084       .  S
C2031      C2032   1.417       .  A
C2031      C2038   1.443       .  S
C2032      C2033   1.403       .  A
C2033      C2034   1.395       .  A
C2033      H2036   1.085       .  S
C2034      C4269   1.445       .  S
C2037      C4266   1.445       .  S
C2037      N2039   1.157       .  T
C2038      N2040   1.157   1_565  T
C2041      C2042   1.405       .  A
C2041      C2046   1.416       .  A
C2042      C2043   1.402       .  A
C2042      H2047   1.085       .  S
C2043      C2044   1.413       .  A
C2043      C2050   1.444       .  S
C2044      C2045   1.406       .  A
C2045      C2046   1.409       .  A
C2045      H2048   1.085       .  S
C2046      C2049   1.443       .  S
C2049      N2051   1.157       .  T
C2050      N2052   1.157       .  T
C2053      C2054   1.414       .  A
C2053      C2058   1.403       .  A
C2054      C2055   1.404       .  A
C2054      H2059   1.085       .  S
C2055      C2056   1.409       .  A
C2055      C2062   1.443       .  S
C2056      C2057   1.416       .  A
C2057      C2058   1.399       .  A
C2057      H2060   1.084       .  S
C2058      C2061   1.441       .  S
C2061      N2063   1.156       .  T
C2062      N2064   1.157       .  T
C2065      C4298   1.403   1_455  A
C2065      C4302   1.410   1_455  A
C2066      C4297   1.406       .  A
C2066      C2067   1.397       .  A
C2066      H4303   1.085       .  S
C2067      C2068   1.413       .  A
C2067      C2074   1.445       .  S
C2068      C2069   1.411       .  A
C2069      C2070   1.406       .  A
C2069      H2072   1.085       .  S
C2070      C4297   1.410       .  A
C2070      C2073   1.441       .  S
H2071      C4298   1.086   1_455  S
C2073      N4307   1.157       .  T
C2074      N2076   1.157       .  T
N2075      C4305   1.157       .  T
C2077      C2078   1.404       .  A
C2077      C2082   1.416       .  A
C2078      C2079   1.396       .  A
C2078      H2083   1.085       .  S
C2079      C2080   1.416       .  A
C2079      C2086   1.445       .  S
C2080      C2081   1.409       .  A
C2081      C2082   1.411       .  A
C2081      H2084   1.084       .  S
C2082      C2085   1.442       .  S
C2085      N2087   1.157       .  T
C2086      N2088   1.157       .  T
C2089      C2090   1.408       .  A
C2090      H2095   1.082       .  S
C2091      C2092   1.413       .  A
C2092      C2093   1.408       .  A
C2093      C2094   1.408       .  A
C2093      H2096   1.084       .  S
C2094      C2097   1.444       .  S
C2097      N2099   1.157       .  T
C2098      N2100   1.157       .  T
C2101      C2102   1.400       .  A
C2101      C2106   1.428       .  A
C2102      C2103   1.406       .  A
C2102      H2107   1.085       .  S
C2103      C2104   1.428       .  A
C2103      C2110   1.445       .  S
C2104      C2105   1.399       .  A
C2105      C2106   1.406       .  A
C2105      H2108   1.085       .  S
C2106      C2109   1.445       .  S
C2109      N2111   1.157       .  T
C2110      N2112   1.158       .  T
C2113      C2114   1.405       .  A
C2113      C2118   1.416       .  A
C2114      C2115   1.398       .  A
C2114      H2119   1.085       .  S
C2115      C2116   1.409       .  A
C2115      C2122   1.445       .  S
C2116      C2117   1.398       .  A
C2117      C2118   1.401       .  A
C2117      H2120   1.082       .  S
C2118      C2121   1.440       .  S
C2121      N2123   1.156       .  T
C2122      N2124   1.157       .  T
C2125      C2126   1.403       .  A
C2125      C2130   1.412       .  A
C2126      C2127   1.406       .  A
C2126      H2131   1.085       .  S
C2127      C2128   1.414       .  A
C2127      C2134   1.438       .  S
C2128      C2129   1.408       .  A
C2129      C2130   1.404       .  A
C2129      H2132   1.085       .  S
C2130      C2133   1.445       .  S
C2133      N2135   1.157       .  T
C2134      N2136   1.155       .  T
C2137      C2138   1.403       .  A
C2137      C2142   1.412       .  A
C2138      C2139   1.403       .  A
C2138      H2143   1.085       .  S
C2139      C2140   1.413       .  A
C2139      C2146   1.442       .  S
C2140      C2141   1.405       .  A
C2141      C2142   1.400       .  A
C2141      H2144   1.085       .  S
C2142      C2145   1.445       .  S
C2145      N2147   1.157       .  T
C2146      N2148   1.156       .  T
C2149      C3389   1.472       .  S
C2149      C2150   1.402       .  A
C2149      C2154   1.414       .  A
C2150      C2151   1.395       .  A
C2150      H2155   1.085       .  S
C2151      C2152   1.410       .  A
C2151      C2158   1.445       .  S
C2152      C2153   1.401       .  A
C2153      C2154   1.401       .  A
C2154      C4389   1.442       .  S
C2157      C4386   1.443       .  S
C2157      N2159   1.157   1_655  T
C2158      N2160   1.157       .  T
C2161      C2162   1.411       .  A
C2161      C2166   1.404       .  A
C2162      C2163   1.401       .  A
C2162      H2167   1.085       .  S
C2163      C2164   1.409       .  A
C2163      C2170   1.443       .  S
C2164      C2165   1.418       .  A
C2165      C2166   1.404       .  A
C2165      H2168   1.084       .  S
C2166      C2169   1.444       .  S
C2169      N2171   1.157       .  T
C2170      N2172   1.157       .  T
C2173      C2174   1.407       .  A
C2173      C2178   1.416       .  A
C2174      C2175   1.409       .  A
C2174      H2179   1.085       .  S
C2175      C2176   1.416       .  A
C2175      C2182   1.443       .  S
C2176      C2177   1.406       .  A
C2177      C2178   1.399       .  A
C2177      H2180   1.085       .  S
C2178      C2181   1.445       .  S
C2181      N2183   1.157       .  T
C2182      N2184   1.157       .  T
C2185      C2190   1.413       .  A
C2186      C2187   1.403       .  A
C2186      H2191   1.084   1_565  S
C2187      C2188   1.416       .  A
C2187      C2194   1.442       .  S
C2188      C2189   1.404       .  A
C2189      H2192   1.085       .  S
C2190      C2193   1.446       .  S
C2193      N2195   1.157       .  T
C2194      N2196   1.156       .  T
C2197      C2198   1.409       .  A
C2197      C2202   1.410       .  A
C2198      C2199   1.413       .  A
C2198      H2203   1.084       .  S
C2199      C2200   1.410       .  A
C2199      C2206   1.442       .  S
C2200      C2201   1.399       .  A
C2201      C2202   1.387       .  A
C2201      H2204   1.087       .  S
C2202      C2205   1.445       .  S
C2205      N2207   1.157       .  T
C2206      N2208   1.157       .  T
C2209      C2210   1.403       .  A
C2209      C2214   1.418       .  A
C2210      C2211   1.392       .  A
C2210      H2215   1.085       .  S
C2211      C2212   1.413       .  A
C2211      C2218   1.445       .  S
C2212      C2213   1.400       .  A
C2213      C2214   1.402       .  A
C2213      H2216   1.084       .  S
C2214      C2217   1.443       .  S
C2217      N2219   1.157       .  T
C2218      N2220   1.157       .  T
C2221      C2222   1.406       .  A
C2221      C2226   1.409       .  A
C2222      C4455   1.407       .  A
C2222      H2227   1.085       .  S
C2223      C4454   1.406       .  A
C2223      C2224   1.417       .  A
C2223      C2230   1.444       .  S
C2224      C2225   1.411       .  A
C2225      C4458   1.399   1_455  A
C2225      H2228   1.082       .  S
C2226      C4457   1.403       .  A
C2226      C2229   1.445       .  S
C2229      N2231   1.157       .  T
C2230      N2232   1.157       .  T
O2233     Ni2239   1.899       .  S
O2233      C2254   1.260       .  A
O2234     Ni2257   1.903       .  S
O2234      C2243   1.265       .  A
O2235     Ni2239   1.906       .  S
O2235     Ni2257   1.909       .  S
O2235     Ni2251   1.924       .  S
O2235      H2258   0.966       .  S
C2236      O2253   1.281       .  A
C2236      O2245   1.282       .  A
C2236      C3313   1.481       .  S
O2237     Ni2256   1.949       .  S
O2237      C2243   1.274       .  A
O2238     Ni2256   1.890       .  S
O2238      C2240   1.266       .  A
Ni2239     O2244   1.900       .  S
C2240      O2250   1.279       .  A
C2240      C3292   1.491       .  S
O2241     Ni2257   1.914       .  S
O2242      C2247   1.276       .  A
C2243      C3337   1.486       .  S
O2244      C2246   1.266       .  A
O2245     Ni2256   1.930       .  S
C2246      O2252   1.270       .  A
C2246      C3301   1.475       .  S
C2247      C3325   1.478       .  S
H2248      O2249   0.966       .  S
O2249     Ni2257   1.900       .  S
O2249     Ni2251   1.920       .  S
O2249     Ni2256   1.892       .  S
O2250     Ni2251   1.954       .  S
Ni2251     O2255   1.947       .  S
Ni2251     O2253   1.926       .  S
O2252     Ni2257   1.931       .  S
C2254      O2255   1.276       .  A
C2254      C3277   1.490       .  S
O2259     Ni2265   1.893       .  S
O2259      C2280   1.255       .  A
O2260     Ni2283   1.906       .  S
O2260      C2269   1.269       .  A
O2261     Ni2265   1.897       .  S
O2261     Ni2283   1.904       .  S
O2261     Ni2277   1.922       .  S
O2261      H2284   0.965       .  S
C2262      O2279   1.283       .  A
C2262      O2271   1.283       .  A
C2262      C3253   1.491       .  S
O2263     Ni2282   1.952       .  S
O2263      C2269   1.277       .  A
O2264     Ni2282   1.894       .  S
O2264      C2266   1.268       .  A
Ni2265     O2268   1.914       .  S
Ni2265     O2270   1.882       .  S
C2266      O2276   1.277       .  A
C2266      C3241   1.480       .  S
O2267     Ni2283   1.919       .  S
O2267      C2273   1.277       .  A
O2268      C2273   1.278       .  A
C2269      C3340   1.505       .  S
O2270      C2272   1.261       .  A
O2271     Ni2282   1.930       .  S
C2272      O2278   1.271       .  A
C2272      C3232   1.475       .  S
H2274      O2275   0.966       .  S
O2275     Ni2283   1.908       .  S
O2275     Ni2277   1.916       .  S
O2275     Ni2282   1.886       .  S
O2276     Ni2277   1.941       .  S
Ni2277     O2281   1.950       .  S
Ni2277     O2279   1.934       .  S
O2278     Ni2283   1.938       .  S
C2280      O2281   1.276       .  A
C2280      C3217   1.498       .  S
O2285     Ni2291   1.894       .  S
O2285      C2306   1.259       .  A
O2286     Ni2309   1.895       .  S
O2286      C2295   1.267       .  A
O2287     Ni2291   1.895       .  S
O2287     Ni2309   1.900       .  S
O2287     Ni2303   1.924       .  S
O2287      H2310   0.966       .  S
C2288      O2305   1.282       .  A
C2288      O2297   1.285       .  A
C2288      C3244   1.487       .  S
O2289     Ni2308   1.960       .  S
O2289      C2295   1.279       .  A
O2290     Ni2308   1.900       .  S
O2290      C2292   1.270       .  A
Ni2291     O3410   1.910       .  S
Ni2291     O2296   1.899       .  S
C2292      O2302   1.280       .  A
C2292      C3193   1.496       .  S
O2293     Ni3425   1.931       .  S
O2293      C2299   1.278   1_565  A
O2294     Ni3407   1.917   1_545  S
O2294      C2299   1.278       .  A
C2295      C3205   1.506       .  S
O2296      C2298   1.267       .  A
O2297     Ni2308   1.938       .  S
C2298      O2304   1.271       .  A
C2298      C3181   1.487       .  S
C2299      C3229   1.484       .  S
H2300      O2301   0.966       .  S
O2301     Ni2309   1.903       .  S
O2301     Ni2303   1.911       .  S
O2301     Ni2308   1.886       .  S
O2302     Ni2303   1.952       .  S
Ni2303     O2307   1.944       .  S
Ni2303     O2305   1.929       .  S
O2304     Ni2309   1.938       .  S
C2306      O2307   1.276       .  A
C2306      C3169   1.478       .  S
Ni2309     O3409   1.925       .  S
O2311     Ni2317   1.896       .  S
O2311      C2332   1.258       .  A
O2312     Ni2335   1.895       .  S
O2312      C2321   1.266       .  A
O2313     Ni2317   1.898       .  S
O2313     Ni2335   1.899       .  S
O2313     Ni2329   1.923       .  S
O2313      H2336   0.966       .  S
C2314      O2331   1.282       .  A
C2314      O2323   1.288       .  A
C2314      C3157   1.493       .  S
O2315     Ni2334   1.967       .  S
O2315      C2321   1.282       .  A
O2316     Ni2334   1.898       .  S
O2316      C2318   1.269       .  A
Ni2317     O2320   1.911       .  S
Ni2317     O2322   1.893       .  S
C2318      O2328   1.276       .  A
C2318      C3316   1.478       .  S
O2319     Ni2335   1.920       .  S
O2319      C2325   1.277   1_545  A
O2320      C2325   1.276   1_545  A
C2321      C3208   1.493       .  S
O2322      C2324   1.264       .  A
O2323     Ni2334   1.947       .  S
C2324      O2330   1.270       .  A
C2324      C3328   1.477       .  S
C2325      C4264   1.476       .  S
H2326      O2327   0.966       .  S
O2327     Ni2335   1.903       .  S
O2327     Ni2329   1.900       .  S
O2327     Ni2334   1.882       .  S
O2328     Ni2329   1.942       .  S
Ni2329     O2333   1.932       .  S
Ni2329     O2331   1.927       .  S
O2330     Ni2335   1.934       .  S
C2332      O2333   1.272       .  A
C2332      C3133   1.466       .  S
O2337     Ni2343   1.895       .  S
O2337      C2358   1.259       .  A
O2338     Ni2361   1.891       .  S
O2338      C2347   1.264       .  A
O2339     Ni2343   1.901       .  S
O2339     Ni2361   1.903       .  S
O2339     Ni2355   1.927       .  S
O2339      H2362   0.966       .  S
C2340      O2357   1.283       .  A
C2340      O2349   1.285       .  A
C2340      C3196   1.498       .  S
O2341     Ni2360   1.964       .  S
O2341      C2347   1.279       .  A
O2342     Ni2360   1.893       .  S
O2342      C2344   1.269       .  A
Ni2343     O2346   1.912       .  S
Ni2343     O2348   1.892       .  S
C2344      O2354   1.280       .  A
C2344      C3256   1.488       .  S
O2345     Ni2361   1.929       .  S
O2345      C2351   1.278       .  A
O2346      C2351   1.276       .  A
C2347      C3121   1.504       .  S
O2348      C2350   1.263       .  A
O2349     Ni2360   1.937       .  S
C2350      O2356   1.267       .  A
C2350      C4384   1.473       .  S
C2351      C3184   1.485       .  S
H2352      O2353   0.966       .  S
O2353     Ni2361   1.908       .  S
O2353     Ni2355   1.915       .  S
O2353     Ni2360   1.890       .  S
O2354     Ni2355   1.950       .  S
Ni2355     O2359   1.946       .  S
Ni2355     O2357   1.936       .  S
O2356     Ni2361   1.927       .  S
C2358      O2359   1.277       .  A
C2358      C3109   1.486       .  S
O2363     Ni2369   1.893       .  S
O2363      C2384   1.258       .  A
O2364     Ni2387   1.895       .  S
O2364      C2373   1.265       .  A
O2365     Ni2369   1.902       .  S
O2365     Ni2387   1.903       .  S
O2365     Ni2381   1.922       .  S
O2365      H2388   0.965       .  S
C2366      O2383   1.279       .  A
C2366      O2375   1.285       .  A
C2366      C3289   1.490       .  S
O2367     Ni2386   1.964       .  S
O2367      C2373   1.280       .  A
O2368     Ni2386   1.897       .  S
O2368      C2370   1.269       .  A
Ni2369     O2372   1.909       .  S
Ni2369     O2374   1.892       .  S
C2370      O2380   1.282       .  A
C2370      C3160   1.486       .  S
O2371     Ni2387   1.935       .  S
O2371      C2377   1.281       .  A
O2372      C2377   1.276       .  A
C2373      C3124   1.494       .  S
O2374      C2376   1.262       .  A
O2375     Ni2386   1.944       .  S
C2376      O2382   1.264       .  A
C2377      C3304   1.483       .  S
H2378      O2379   0.965       .  S
O2379     Ni2387   1.913       .  S
O2379     Ni2381   1.913       .  S
O2379     Ni2386   1.888       .  S
O2380     Ni2381   1.953       .  S
Ni2381     O2385   1.943       .  S
Ni2381     O2383   1.925       .  S
O2382     Ni2387   1.917       .  S
C2384      O2385   1.276       .  A
C2384      C3097   1.483       .  S
O2389     Ni2395   1.897       .  S
O2389      C2410   1.260       .  A
O2390     Ni2413   1.883       .  S
O2390      C2399   1.262       .  A
O2391     Ni2395   1.903       .  S
O2391     Ni2413   1.901       .  S
O2391      H2414   0.966       .  S
C2392      O2409   1.284       .  A
C2392      O2401   1.285       .  A
C2392      C3052   1.484       .  S
O2393     Ni2412   1.963       .  S
O2394     Ni2412   1.901       .  S
O2394      C2396   1.269       .  A
Ni2395     O2398   1.911       .  S
Ni2395     O2400   1.903       .  S
C2396      O2406   1.277       .  A
C2396      C3073   1.492       .  S
O2397     Ni2413   1.922       .  S
O2397      C2403   1.274       .  A
O2398      C2403   1.275       .  A
C2399      C3088   1.500       .  S
O2400      C2402   1.266       .  A
O2401     Ni2412   1.937       .  S
C2402      O2408   1.271       .  A
C2402      C3064   1.482       .  S
C2403      C3037   1.473       .  S
O2405     Ni2407   1.910       .  S
O2405     Ni2412   1.892       .  S
O2406     Ni2407   1.949       .  S
Ni2407     O2411   1.944       .  S
Ni2407     O2409   1.934       .  S
O2408     Ni2413   1.938       .  S
C2410      C3028   1.474       .  S
O2415     Ni2421   1.896       .  S
O2415      C2436   1.261       .  A
O2416     Ni2439   1.890       .  S
O2416      C2425   1.263       .  A
O2417     Ni2421   1.896       .  S
O2417     Ni2439   1.902       .  S
O2417     Ni2433   1.927       .  S
O2417      H2440   0.966       .  S
C2418      O2435   1.287       .  A
C2418      O2427   1.283       .  A
C2418      C2977   1.494       .  S
O2419     Ni2438   1.953       .  S
O2419      C2425   1.277       .  A
O2420     Ni2438   1.896       .  S
O2420      C2422   1.269       .  A
Ni2421     O2424   1.911       .  S
Ni2421     O2426   1.899       .  S
C2422      O2432   1.281       .  A
O2423     Ni2439   1.934       .  S
O2423      C2429   1.278       .  A
O2424      C2429   1.277       .  A
C2425      C3085   1.484       .  S
O2426      C2428   1.265       .  A
O2427     Ni2438   1.927       .  S
C2428      O2434   1.270       .  A
C2428      C3013   1.483       .  S
C2429      C2992   1.484       .  S
H2430      O2431   0.966       .  S
O2431     Ni2439   1.907       .  S
O2431     Ni2433   1.907       .  S
O2431     Ni2438   1.884       .  S
O2432     Ni2433   1.958       .  S
Ni2433     O2437   1.942       .  S
Ni2433     O2435   1.946       .  S
O2434     Ni2439   1.938       .  S
C2436      O2437   1.279       .  A
C2436      C3220   1.485       .  S
O2441     Ni2447   1.904       .  S
O2441      C2462   1.264       .  A
O2442     Ni2465   1.885       .  S
O2442      C2451   1.263       .  A
O2443     Ni2447   1.888       .  S
O2443     Ni2465   1.889       .  S
O2443     Ni2459   1.925       .  S
O2443      H2466   0.969       .  S
C2444      O2461   1.285       .  A
C2444      O2453   1.284       .  A
C2444      C4120   1.499       .  S
O2445     Ni2464   1.957       .  S
O2445      C2451   1.279       .  A
O2446     Ni2464   1.895       .  S
O2446      C2448   1.268       .  A
Ni2447     O2450   1.916       .  S
Ni2447     O2452   1.899       .  S
C2448      O2458   1.277       .  A
C2448      C2944   1.485       .  S
O2449     Ni2465   1.931       .  S
O2449      C2455   1.279       .  A
O2450      C2455   1.278       .  A
C2451      C2968   1.489       .  S
O2452      C2454   1.266       .  A
O2453     Ni2464   1.935       .  S
C2454      O2460   1.268       .  A
C2454      C2953   1.474       .  S
C2455      C3016   1.490       .  S
H2456      O2457   0.965       .  S
O2457     Ni2465   1.902       .  S
O2457     Ni2459   1.910       .  S
O2457     Ni2464   1.886       .  S
O2458     Ni2459   1.943       .  S
Ni2459     O2463   1.941       .  S
Ni2459     O2461   1.940       .  S
O2460     Ni2465   1.926       .  S
C2462      O2463   1.278       .  A
C2462      C3112   1.494       .  S
O2467     Ni2473   1.892       .  S
O2467      C2488   1.257       .  A
O2468     Ni2491   1.896       .  S
O2468      C2477   1.267       .  A
O2469     Ni2473   1.896       .  S
O2469     Ni2491   1.898       .  S
O2469     Ni2485   1.916       .  S
O2469      H2492   0.968       .  S
C2470      O2487   1.281       .  A
C2470      O2479   1.285       .  A
C2470      C2929   1.489       .  S
O2471     Ni2490   1.947       .  S
O2471      C2477   1.277       .  A
O2472     Ni2490   1.895       .  S
O2472      C2474   1.269       .  A
Ni2473     O2476   1.909       .  S
Ni2473     O2478   1.893       .  S
C2474      O2484   1.280       .  A
C2474      C3049   1.482       .  S
O2475     Ni2491   1.924       .  S
O2475      C2481   1.280       .  A
O2476      C2481   1.276       .  A
C2477      C2965   1.495       .  S
O2478      C2480   1.263       .  A
O2479     Ni2490   1.932       .  S
C2480      O2486   1.267       .  A
C2480      C3040   1.482       .  S
C2481      C2917   1.473       .  S
H2482      O2483   0.966       .  S
O2483     Ni2491   1.907       .  S
O2483     Ni2485   1.901       .  S
O2483     Ni2490   1.877       .  S
O2484     Ni2485   1.951       .  S
Ni2485     O2489   1.936       .  S
Ni2485     O2487   1.927       .  S
O2486     Ni2491   1.929       .  S
C2488      O2489   1.273       .  A
C2488      C2908   1.489       .  S
O2493     Ni2499   1.904       .  S
O2493      C3630   1.265       .  A
O2494     Ni2517   1.893       .  S
O2494      C2503   1.264       .  A
O2495     Ni2499   1.886       .  S
O2495     Ni2517   1.895       .  S
O2495     Ni3627   1.928       .  S
O2495      H3634   0.966       .  S
C2496      O2513   1.286       .  A
C2496      O2505   1.286       .  A
C2496      C3076   1.490       .  S
O2497     Ni2516   1.960       .  S
O2497      C3619   1.280       .  A
O2498     Ni2516   1.896       .  S
O2498      C2500   1.268       .  A
Ni2499     O2502   1.916       .  S
Ni2499     O2504   1.902       .  S
C2500      O2510   1.279       .  A
C2500      C2932   1.484       .  S
O2501     Ni2517   1.941       .  S
O2501      C2507   1.280       .  A
O2502      C2507   1.276       .  A
C2503      O3613   1.279       .  A
C2503      C2896   1.482       .  S
O2504      C2506   1.269       .  A
O2505     Ni2516   1.939       .  S
C2506      O2512   1.266       .  A
C2506      C2920   1.470       .  S
C2507      C3061   1.495       .  S
H2508      O2509   0.966       .  S
O2509     Ni3633   1.897   1_545  S
O2509     Ni2511   1.905       .  S
O2509     Ni2516   1.878       .  S
O2510     Ni2511   1.947       .  S
Ni2511     O2515   1.946       .  S
Ni2511     O2513   1.937       .  S
Ni2511     O3611   1.927   1_545  S
O2512     Ni2517   1.918       .  S
C2514      O3609   1.263   1_545  A
C2514      O2515   1.281       .  A
C2514      C2884   1.484       .  S
Ni2517     O3625   1.903       .  S
H2518      O3611   0.966   1_545  S
O2519     Ni2525   1.892       .  S
O2519      C2540   1.257       .  A
O2520     Ni2543   1.897       .  S
O2520      C2529   1.267       .  A
O2521     Ni2525   1.890       .  S
O2521     Ni2543   1.898       .  S
O2521     Ni2537   1.921       .  S
O2521      H2544   0.967       .  S
C2522      O2539   1.282       .  A
C2522      O2531   1.283       .  A
O2523     Ni2542   1.948       .  S
O2523      C2529   1.276       .  A
O2524     Ni2542   1.897       .  S
O2524      C2526   1.269       .  A
Ni2525     O2528   1.905       .  S
Ni2525     O2530   1.887       .  S
C2526      O2536   1.277       .  A
C2526      C4096   1.481       .  S
O2527     Ni2543   1.928       .  S
O2527      C2533   1.279       .  A
O2528      C2533   1.277       .  A
C2529      C2893   1.497       .  S
O2530      C2532   1.263       .  A
O2531     Ni2542   1.932       .  S
C2532      O2538   1.270       .  A
C2532      C2989   1.482       .  S
C2533      C2956   1.469       .  S
H2534      O2535   0.966       .  S
O2535     Ni2543   1.911       .  S
O2535     Ni2537   1.911       .  S
O2535     Ni2542   1.884       .  S
O2536     Ni2537   1.941       .  S
Ni2537     O2541   1.947       .  S
Ni2537     O2539   1.932       .  S
O2538     Ni2543   1.938       .  S
C2540      O2541   1.274       .  A
C2540      C3172   1.493       .  S
O2545     Ni2551   1.890       .  S
O2545      C2566   1.256       .  A
O2546     Ni2569   1.884       .  S
O2546      C2555   1.260       .  A
O2547     Ni2551   1.894       .  S
O2547     Ni2569   1.893       .  S
O2547     Ni2563   1.922       .  S
O2547      H2570   0.966       .  S
C2548      O2565   1.282       .  A
C2548      O2557   1.283       .  A
O2549     Ni2568   1.961       .  S
O2549      C2555   1.280       .  A
O2550     Ni2568   1.900       .  S
O2550      C2552   1.270       .  A
Ni2551     O2554   1.906       .  S
Ni2551     O2556   1.893       .  S
C2552      O2562   1.278       .  A
C2552      C2845   1.490       .  S
O2553     Ni2569   1.928       .  S
O2553      C2559   1.279       .  A
O2554      C2559   1.277       .  A
C2555      C2872   1.498       .  S
O2556      C2558   1.263       .  A
O2557     Ni2568   1.929       .  S
C2558      O2564   1.265       .  A
C2558      C2860   1.475       .  S
C2559      C2833   1.481       .  S
H2560      O2561   0.966       .  S
O2561     Ni2569   1.900       .  S
O2561     Ni2563   1.913       .  S
O2561     Ni2568   1.886       .  S
O2562     Ni2563   1.945       .  S
Ni2563     O2567   1.949       .  S
Ni2563     O2565   1.926       .  S
O2564     Ni2569   1.923       .  S
C2566      O2567   1.275       .  A
C2566      C3100   1.494       .  S
O2571     Ni2577   1.887       .  S
O2571      C2592   1.257       .  A
O2572     Ni2595   1.889       .  S
O2572      C2581   1.265       .  A
O2573     Ni2577   1.886       .  S
O2573     Ni2595   1.887       .  S
O2573     Ni2589   1.926       .  S
O2573      H2596   0.965       .  S
C2574      O2591   1.283       .  A
C2574      O2583   1.287       .  A
C2574      C2785   1.496       .  S
O2575     Ni2594   1.960       .  S
O2575      C2581   1.280       .  A
O2576     Ni2594   1.895       .  S
O2576      C2578   1.268       .  A
Ni2577     O2580   1.906       .  S
Ni2577     O2582   1.892       .  S
C2578      O2588   1.278       .  A
C2578      C2812   1.494       .  S
O2579     Ni2595   1.929       .  S
O2579      C2585   1.279       .  A
O2580      C2585   1.276       .  A
C2581      C2869   1.486       .  S
O2582      C2584   1.264       .  A
O2583     Ni2594   1.944       .  S
C2584      O2590   1.269       .  A
C2584      C2800   1.479       .  S
C2585      C2776   1.482       .  S
H2586      O2587   0.966       .  S
O2587     Ni2595   1.905       .  S
O2587     Ni2589   1.899       .  S
O2587     Ni2594   1.878       .  S
O2588     Ni2589   1.943       .  S
Ni2589     O2593   1.939       .  S
Ni2589     O2591   1.927       .  S
O2590     Ni2595   1.927       .  S
C2592      O2593   1.274       .  A
C2592      C2905   1.477       .  S
O2597     Ni2603   1.908       .  S
O2597      C2618   1.261       .  A
O2598     Ni2621   1.895       .  S
O2598      C2607   1.265       .  A
O2599     Ni2603   1.896       .  S
O2599     Ni2621   1.898       .  S
O2599     Ni2615   1.921       .  S
O2599      H2622   0.966       .  S
C2600      O2617   1.282       .  A
C2600      O2609   1.284       .  A
C2600      C2740   1.492       .  S
O2601     Ni2620   1.956       .  S
O2601      C2607   1.278       .  A
O2602     Ni2620   1.895       .  S
O2602      C2604   1.270       .  A
Ni2603     O2606   1.922       .  S
Ni2603     O2608   1.890       .  S
C2604      O2614   1.277       .  A
C2604      C3940   1.488   1_545  S
O2605     Ni2621   1.917       .  S
O2605      C2611   1.276       .  A
O2606      C2611   1.278       .  A
C2607      C2764   1.504       .  S
O2608      C2610   1.265       .  A
O2609     Ni2620   1.934       .  S
C2610      O2616   1.268       .  A
C2610      C2836   1.476       .  S
C2611      C2749   1.479       .  S
H2612      O2613   0.966       .  S
O2613     Ni2621   1.906       .  S
O2613     Ni2615   1.909       .  S
O2613     Ni2620   1.884       .  S
O2614     Ni2615   1.943       .  S
Ni2615     O2619   1.932       .  S
Ni2615     O2617   1.934       .  S
O2616     Ni2621   1.926       .  S
C2618      O2619   1.274       .  A
C2618      C3136   1.475       .  S
O2623     Ni2629   1.895       .  S
O2623      C2644   1.258       .  A
O2624     Ni2647   1.907       .  S
O2624      C2633   1.267       .  A
O2625     Ni2629   1.897       .  S
O2625     Ni2647   1.899       .  S
O2625     Ni3757   1.921   1_545  S
O2625      H2648   0.966       .  S
C2626      O2643   1.284       .  A
C2626      O2635   1.283       .  A
C2626      C2809   1.496       .  S
O2627     Ni2646   1.951       .  S
O2627      C3749   1.276       .  A
O2628     Ni2646   1.895       .  S
O2628      C2630   1.268       .  A
Ni2629     O2632   1.908       .  S
Ni2629     O2634   1.893       .  S
C2630      O2640   1.276       .  A
C2630      C2716   1.489       .  S
O2631     Ni2647   1.926       .  S
O2631      C2637   1.279       .  A
O2632      C2637   1.278       .  A
C2633      O3743   1.277   1_545  A
C2633      C2761   1.489       .  S
O2634      C2636   1.264       .  A
O2635     Ni2646   1.923       .  S
C2636      O2642   1.270       .  A
C2636      C2728   1.478       .  S
C2637      C2797   1.486       .  S
H2638      O3755   0.966   1_545  S
O2639     Ni3763   1.901       .  S
O2639     Ni2641   1.911       .  S
O2639     Ni2646   1.884       .  S
O2639      H3754   0.966       .  S
O2640     Ni2641   1.941       .  S
Ni2641     O2645   1.943       .  S
Ni2641     O2643   1.937       .  S
Ni2641     O3741   1.926       .  S
O2642     Ni2647   1.934       .  S
C2644      O3761   1.275   1_545  A
C2644      C2881   1.492       .  S
O2645      C3760   1.275       .  A
Ni2647     O3755   1.910   1_545  S
O2649     Ni2655   1.900       .  S
O2650     Ni2673   1.888       .  S
O2650      C2659   1.263   1_655  A
O2651     Ni2655   1.894       .  S
O2651     Ni2673   1.896       .  S
C2652      O2669   1.285       .  A
C2652      O2661   1.283       .  A
C2652      C2713   1.493       .  S
O2653     Ni2672   1.946       .  S
O2654     Ni2672   1.891       .  S
O2654      C2656   1.268       .  A
Ni2655     O2658   1.914       .  S
Ni2655     O2660   1.895       .  S
C2656      O2666   1.283       .  A
C2656      C2788   1.492       .  S
O2657     Ni2673   1.929       .  S
O2657      C2663   1.279       .  A
O2658      C2663   1.278       .  A
C2659      C2701   1.496   1_455  S
O2660      C2662   1.264       .  A
O2661     Ni2672   1.924       .  S
C2662      O2668   1.266       .  A
C2662      C2773   1.472       .  S
C2663      C2725   1.479       .  S
H2664      O2665   0.966       .  S
O2665     Ni2667   1.908       .  S
O2665     Ni2672   1.878       .  S
O2666     Ni2667   1.960       .  S
Ni2667     O2671   1.946       .  S
Ni2667     O2669   1.940       .  S
O2668     Ni2673   1.922       .  S
C2670      O2671   1.278       .  A
C2670      C3025   1.483       .  S
O2675     Ni2681   1.900       .  S
O2675      C2696   1.261       .  A
O2676     Ni2699   1.898       .  S
O2676      C2685   1.265       .  A
O2677     Ni2681   1.889       .  S
O2677     Ni2699   1.899       .  S
O2677     Ni2693   1.917       .  S
O2677      H2700   0.966       .  S
C2678      O2695   1.282       .  A
C2678      O2687   1.283       .  A
C2678      C3964   1.490   1_545  S
O2679     Ni2698   1.951       .  S
O2679      C2685   1.276       .  A
O2680     Ni2698   1.900       .  S
O2680      C2682   1.268       .  A
Ni2681     O2684   1.907       .  S
Ni2681     O2686   1.891       .  S
C2682      O2692   1.277       .  A
O2683     Ni2699   1.927       .  S
O2683      C2689   1.278       .  A
O2684      C2689   1.278       .  A
C2685      C2704   1.484       .  S
O2686      C2688   1.265       .  A
O2687     Ni2698   1.935       .  S
C2688      O2694   1.271       .  A
C2688      C2752   1.477       .  S
C2689      C2857   1.481       .  S
H2690      O2691   0.966       .  S
O2691     Ni2699   1.909       .  S
O2691     Ni2693   1.918       .  S
O2691     Ni2698   1.894       .  S
O2692     Ni2693   1.944       .  S
Ni2693     O2697   1.948       .  S
Ni2693     O2695   1.929       .  S
O2694     Ni2699   1.938       .  S
C2696      O2697   1.277       .  A
C2696      C3280   1.500       .  S
C2701      C2702   1.411       .  A
C2702      C2703   1.401       .  A
C2702      H2707   1.084       .  S
C2703      C2704   1.409       .  A
C2703      C2710   1.444       .  S
C2704      C2705   1.404       .  A
C2706      C2709   1.444       .  S
C2709      N2711   1.157       .  T
C2710      N2712   1.157       .  T
C2713      C2714   1.406       .  A
C2713      C2718   1.416       .  A
C2714      C2715   1.396       .  A
C2714      H2719   1.085       .  S
C2715      C2716   1.415       .  A
C2715      C2722   1.446       .  S
C2716      C2717   1.407       .  A
C2717      C2718   1.409       .  A
C2717      H2720   1.084       .  S
C2718      C2721   1.442       .  S
C2721      N2723   1.157       .  T
C2722      N2724   1.157       .  T
C2725      C2726   1.407       .  A
C2725      C2730   1.410       .  A
C2726      C2727   1.405       .  A
C2726      H2731   1.084       .  S
C2727      C2728   1.411       .  A
C2727      C2734   1.444       .  S
C2728      C2729   1.404       .  A
C2729      C2730   1.397       .  A
C2729      H2732   1.085       .  S
C2730      C2733   1.445       .  S
C2733      N2735   1.157       .  T
C2734      N2736   1.157       .  T
C2737      C2738   1.404       .  A
C2737      C2742   1.412       .  A
C2738      C2739   1.407       .  A
C2738      H2743   1.084       .  S
C2739      C2740   1.417       .  A
C2739      C2746   1.440       .  S
C2740      C2741   1.405       .  A
C2741      C2742   1.400       .  A
C2741      H2744   1.085       .  S
C2742      C2745   1.443       .  S
C2745      N2747   1.156       .  T
C2746      N2748   1.156       .  T
C2749      C2750   1.407       .  A
C2749      C2754   1.410       .  A
C2750      C2751   1.404       .  A
C2750      H2755   1.085       .  S
C2751      C2752   1.411       .  A
C2751      C2758   1.441       .  S
C2752      C2753   1.404       .  A
C2753      C2754   1.395       .  A
C2753      H2756   1.086       .  S
C2754      C2757   1.444       .  S
C2757      N2759   1.157       .  T
C2758      N2760   1.156       .  T
C2761      C2762   1.403       .  A
C2761      C2766   1.410       .  A
C2762      C2763   1.406       .  A
C2762      H2767   1.084       .  S
C2763      C2764   1.420       .  A
C2763      C2770   1.444       .  S
C2764      C2765   1.413       .  A
C2765      C2766   1.405       .  A
C2765      H2768   1.084       .  S
C2766      C2769   1.444       .  S
C2769      N2771   1.157       .  T
C2770      N2772   1.157       .  T
C2773      C2774   1.401       .  A
C2773      C2778   1.410       .  A
C2774      C2775   1.395       .  A
C2774      H2779   1.085       .  S
C2775      C2776   1.414       .  A
C2775      C2782   1.445       .  S
C2776      C2777   1.409       .  A
C2777      C2778   1.403       .  A
C2777      H2780   1.085       .  S
C2778      C2781   1.444       .  S
C2781      N2783   1.157       .  T
C2782      N2784   1.157       .  T
C2785      C2786   1.410       .  A
C2785      C2790   1.414       .  A
C2786      C2787   1.408       .  A
C2786      H2791   1.084       .  S
C2787      C2788   1.412       .  A
C2787      C2794   1.441       .  S
C2788      C2789   1.408       .  A
C2789      C2790   1.402       .  A
C2789      H2792   1.085       .  S
C2790      C2793   1.445       .  S
C2793      N2795   1.157       .  T
C2794      N2796   1.157       .  T
C2797      C2798   1.405       .  A
C2797      C2802   1.416       .  A
C2798      C2799   1.393       .  A
C2798      H2803   1.085       .  S
C2799      C2800   1.415       .  A
C2799      C2806   1.447       .  S
C2800      C2801   1.403       .  A
C2801      C2802   1.402       .  A
C2801      H2804   1.085       .  S
C2802      C2805   1.442       .  S
C2805      N2807   1.157       .  T
C2806      N2808   1.158       .  T
C2809      C2810   1.405       .  A
C2809      C2814   1.417       .  A
C2810      C2811   1.394       .  A
C2810      H2815   1.085       .  S
C2811      C2812   1.418       .  A
C2811      C2818   1.446       .  S
C2812      C2813   1.409       .  A
C2813      C2814   1.410       .  A
C2813      H2816   1.084       .  S
C2814      C2817   1.443       .  S
C2817      N2819   1.157       .  T
C2818      N2820   1.157       .  T
C2821      C2822   1.410       .  A
C2821      C2826   1.416       .  A
C2822      C2823   1.408       .  A
C2822      H2827   1.084       .  S
C2823      C2824   1.414       .  A
C2823      C2830   1.443       .  S
C2824      C3720   1.487       .  S
C2824      C2825   1.404       .  A
C2825      C2826   1.393       .  A
C2825      H3944   1.086       .  S
C2826      C2829   1.446       .  S
H2828      C3941   1.086       .  S
C2830      N2832   1.158       .  T
C2833      C2834   1.408       .  A
C2833      C2838   1.412       .  A
C2834      C2835   1.404       .  A
C2834      H2839   1.082       .  S
C2835      C2836   1.411       .  A
C2835      C2842   1.444       .  S
C2836      C2837   1.403       .  A
C2837      C2838   1.392       .  A
C2837      H2840   1.086       .  S
C2838      C2841   1.445       .  S
C2841      N2843   1.157       .  T
C2842      N2844   1.157       .  T
C2845      C2846   1.407       .  A
C2845      C2850   1.415       .  A
C2846      C2847   1.408       .  A
C2846      H2851   1.085       .  S
C2847      C2848   1.415       .  A
C2847      C3970   1.444       .  S
C2848      C3794   1.487       .  S
C2848      C2849   1.403       .  A
C2849      C2850   1.400       .  A
C2849      H2852   1.085       .  S
C2850      C2853   1.445       .  S
C2853      N2855   1.157       .  T
C2854      C3963   1.442   1_545  S
C2854      N2856   1.156       .  T
C2857      C2858   1.403       .  A
C2857      C2862   1.415       .  A
C2858      C2859   1.392       .  A
C2858      H2863   1.085       .  S
C2859      C2860   1.411       .  A
C2859      C2866   1.445       .  S
C2860      C2861   1.404       .  A
C2861      C2862   1.404       .  A
C2861      H2864   1.084       .  S
C2862      C2865   1.442       .  S
C2865      N2867   1.157       .  T
C2866      N2868   1.157       .  T
C2869      C2870   1.401       .  A
C2869      C2874   1.413       .  A
C2870      C2871   1.403       .  A
C2870      H2875   1.085       .  S
C2871      C2872   1.423       .  A
C2871      C2878   1.445       .  S
C2872      C2873   1.406       .  A
C2873      C2874   1.404       .  A
C2873      H2876   1.084       .  S
C2874      C2877   1.443       .  S
C2877      N2879   1.157       .  T
C2878      N2880   1.158       .  T
C2881      C2882   1.415       .  A
C2881      C2886   1.410   1_545  A
C2882      C2883   1.405   1_556  A
C2882      H2887   1.085       .  S
C2883      C2884   1.405       .  A
C2883      C2890   1.443       .  S
C2884      C2885   1.410   1_545  A
C2885      C2886   1.402   1_554  A
C2885      H2888   1.085       .  S
C2886      C4005   1.444       .  S
C2889      C4002   1.444       .  S
C2889      N2891   1.157       .  T
C2890      N2892   1.157       .  T
C2893      C2894   1.411       .  A
C2893      C2898   1.418       .  A
C2894      C2895   1.403       .  A
C2894      H2899   1.084       .  S
C2895      C2896   1.408       .  A
C2895      C2902   1.444       .  S
C2896      C2897   1.402       .  A
C2897      C2898   1.403       .  A
C2897      H4016   1.083       .  S
C2898      C4017   1.444       .  S
H2900      C4013   1.083       .  S
C2901      C4014   1.444   1_545  S
C2901      N2903   1.158       .  T
C2902      N2904   1.157       .  T
C2905      C2906   1.411       .  A
C2905      C2910   1.402       .  A
C2906      C2907   1.399   1_556  A
C2906      H2911   1.085       .  S
C2907      C2908   1.408       .  A
C2907      C2914   1.444       .  S
C2908      C2909   1.418       .  A
C2909      C2910   1.400   1_554  A
C2909      H2912   1.084       .  S
C2910      C2913   1.444       .  S
C2913      N2915   1.157       .  T
C2914      N2916   1.157       .  T
C2917      C2918   1.405       .  A
C2917      C2922   1.415       .  A
C2918      C2919   1.408       .  A
C2918      H2923   1.084       .  S
C2919      C2920   1.414       .  A
C2919      C2926   1.443       .  S
C2920      C2921   1.396       .  A
C2921      C2922   1.384       .  A
C2921      H2924   1.086       .  S
C2922      C2925   1.446       .  S
C2925      N2927   1.157       .  T
C2926      N2928   1.157       .  T
C2929      C2930   1.403       .  A
C2929      C2934   1.418       .  A
C2930      C2931   1.398       .  A
C2930      H2935   1.085       .  S
C2931      C2932   1.414       .  A
C2931      C2938   1.444       .  S
C2932      C2933   1.404       .  A
C2933      C2934   1.405       .  A
C2933      H2936   1.084       .  S
C2934      C2937   1.444       .  S
C2937      N2939   1.157       .  T
C2938      N2940   1.157       .  T
C2941      C2942   1.403       .  A
C2941      C2946   1.415       .  A
C2942      C2943   1.398       .  A
C2942      H2947   1.085       .  S
C2943      C2944   1.415       .  A
C2943      C2950   1.445       .  S
C2944      C2945   1.406       .  A
C2945      C2946   1.406       .  A
C2945      H2948   1.085       .  S
C2949      N2951   1.157       .  T
C2950      N2952   1.157       .  T
C2953      C2954   1.409       .  A
C2953      C2958   1.411       .  A
C2954      C2955   1.409       .  A
C2954      H2959   1.084       .  S
C2955      C2956   1.409       .  A
C2955      C2962   1.442       .  S
C2956      C2957   1.400       .  A
C2957      C2958   1.386       .  A
C2957      H2960   1.086       .  S
C2958      C2961   1.446       .  S
C2961      N2963   1.157       .  T
C2962      N2964   1.157       .  T
C2965      C2966   1.408       .  A
C2965      C2970   1.418       .  A
C2966      C2967   1.399       .  A
C2966      H2971   1.084       .  S
C2967      C2968   1.414       .  A
C2967      C2974   1.445       .  S
C2968      C2969   1.406       .  A
C2969      C2970   1.405       .  A
C2969      H2972   1.084       .  S
C2970      C2973   1.444       .  S
C2973      N2975   1.158       .  T
C2974      N2976   1.157       .  T
C2977      C2978   1.408       .  A
C2977      C2982   1.416       .  A
C2978      C2979   1.401       .  A
C2978      H2983   1.085       .  S
C2979      C2980   1.410       .  A
C2979      C2986   1.445       .  S
C2980      C3642   1.486   1_545  S
C2980      C2981   1.404       .  A
C2981      C2982   1.407       .  A
C2981      H2984   1.083       .  S
C2982      C2985   1.442       .  S
C2985      N2987   1.157       .  T
C2986      N2988   1.157       .  T
C2989      C2990   1.406       .  A
C2989      C2994   1.413       .  A
C2990      C2991   1.407       .  A
C2990      H2995   1.084       .  S
C2991      C2992   1.413       .  A
C2991      C2998   1.440       .  S
C2992      C2993   1.403       .  A
C2993      C2994   1.394       .  A
C2993      H2996   1.085       .  S
C2994      C2997   1.446       .  S
C2997      N2999   1.157       .  T
C2998      N3000   1.156       .  T
C3001      C3002   1.407       .  A
C3001      C3006   1.413       .  A
C3002      C3003   1.397       .  A
C3002      H3007   1.085       .  S
C3003      C3004   1.415       .  A
C3003      C3010   1.446       .  S
C3004      C3560   1.496   1_545  S
C3004      C3005   1.411       .  A
C3005      C3006   1.412       .  A
C3005      H3008   1.084       .  S
C3009      N3011   1.157       .  T
C3010      N3012   1.157       .  T
C3013      C3014   1.405       .  A
C3013      C3018   1.410       .  A
C3014      C3015   1.400       .  A
C3014      H3019   1.085       .  S
C3015      C3016   1.413       .  A
C3015      C3022   1.444       .  S
C3016      C3017   1.410       .  A
C3017      C3018   1.404       .  A
C3017      H3020   1.085       .  S
C3018      C3021   1.441       .  S
C3021      N3023   1.156       .  T
C3022      N3024   1.157       .  T
C3025      C3030   1.409       .  A
C3026      C3027   1.403   1_556  A
C3026      H3031   1.085       .  S
C3027      C3034   1.444       .  S
C3028      C3029   1.407       .  A
C3029      C3030   1.405   1_554  A
C3029      H3032   1.085       .  S
C3030      C3033   1.444       .  S
C3033      N3035   1.157       .  T
C3034      N3036   1.157       .  T
C3037      C3038   1.403       .  A
C3037      C3042   1.408       .  A
C3038      C3039   1.404       .  A
C3038      H3043   1.085       .  S
C3039      C3040   1.417       .  A
C3039      C3046   1.444       .  S
C3040      C3041   1.405       .  A
C3041      C3042   1.394       .  A
C3041      H3044   1.085       .  S
C3042      C3045   1.445       .  S
C3045      N3047   1.157       .  T
C3046      N3048   1.157       .  T
C3049      C3050   1.402       .  A
C3049      C3054   1.411       .  A
C3050      C3051   1.391       .  A
C3050      H3055   1.086       .  S
C3051      C3052   1.410       .  A
C3051      C3058   1.444       .  S
C3052      C3053   1.411       .  A
C3053      C3054   1.417       .  A
C3053      H3056   1.084       .  S
C3054      C3057   1.442       .  S
C3057      N3059   1.157       .  T
C3058      N3060   1.157       .  T
C3061      C3062   1.407       .  A
C3061      C3066   1.422       .  A
C3062      C3063   1.402       .  A
C3062      H3067   1.085       .  S
C3063      C3064   1.410       .  A
C3063      C3070   1.445       .  S
C3064      C3065   1.401       .  A
C3065      C3066   1.407       .  A
C3065      H3068   1.085       .  S
C3066      C3069   1.444       .  S
C3069      N3071   1.157       .  T
C3070      N3072   1.157       .  T
C3073      C3074   1.409       .  A
C3073      C3078   1.413       .  A
C3074      C3075   1.411       .  A
C3074      H3079   1.085       .  S
C3075      C3076   1.415       .  A
C3075      C3082   1.443       .  S
C3076      C3077   1.404       .  A
C3077      C3078   1.400       .  A
C3077      H3080   1.085       .  S
C3078      C3081   1.444       .  S
C3081      N3083   1.157       .  T
C3082      N3084   1.157       .  T
C3085      C3086   1.405       .  A
C3085      C3090   1.409       .  A
C3086      C3087   1.407       .  A
C3086      H3091   1.085       .  S
C3087      C3088   1.419       .  A
C3088      C3089   1.411       .  A
C3089      C3090   1.399       .  A
C3089      H3092   1.084       .  S
C3090      C3093   1.445       .  S
C3093      N3095   1.157       .  T
C3094      N3096   1.157       .  T
C3097      C3098   1.413       .  A
C3097      C3102   1.402       .  A
C3098      C3099   1.403       .  A
C3098      H3103   1.085       .  S
C3099      C3100   1.409       .  A
C3099      C3106   1.444       .  S
C3100      C3101   1.418       .  A
C3101      C3102   1.401       .  A
C3101      H3104   1.084       .  S
C3102      C3105   1.444       .  S
C3105      N3107   1.157       .  T
C3106      N3108   1.158       .  T
C3109      C3110   1.412       .  A
C3109      C3114   1.404       .  A
C3110      C3111   1.403       .  A
C3110      H3115   1.085       .  S
C3111      C3112   1.410       .  A
C3111      C3118   1.444       .  S
C3112      C3113   1.416       .  A
C3113      C3114   1.404       .  A
C3113      H3116   1.084       .  S
C3114      C3117   1.443       .  S
C3117      N3119   1.157       .  T
C3118      N3120   1.158       .  T
C3121      C3122   1.410       .  A
C3121      C3126   1.420       .  A
C3122      C3123   1.401       .  A
C3122      H3127   1.084       .  S
C3123      C3124   1.413       .  A
C3123      C3130   1.445       .  S
C3124      C3125   1.406       .  A
C3125      C3126   1.410       .  A
C3125      H3128   1.082       .  S
C3126      C3129   1.444       .  S
C3129      N3131   1.157       .  T
C3130      N3132   1.157       .  T
C3133      C3134   1.398       .  A
C3133      C3138   1.413       .  A
C3134      C3135   1.401       .  A
C3134      H3139   1.085       .  S
C3135      C3136   1.416       .  A
C3135      C3142   1.445       .  S
C3136      C3137   1.400       .  A
C3137      C3138   1.400       .  A
C3137      H3140   1.085       .  S
C3138      C3141   1.445       .  S
C3141      N3143   1.157       .  T
C3142      N3144   1.157       .  T
C3145      C3146   1.399       .  A
C3145      C3150   1.409       .  A
C3146      C3147   1.399       .  A
C3146      H3151   1.085       .  S
C3147      C3148   1.414       .  A
C3147      C3154   1.443       .  S
C3148      C3441   1.469       .  S
C3148      C3149   1.402       .  A
C3149      C3150   1.396       .  A
C3149      H3152   1.085       .  S
C3153      N3155   1.157       .  T
C3154      N3156   1.157       .  T
C3157      C3158   1.403       .  A
C3157      C3162   1.420       .  A
C3158      C3159   1.402       .  A
C3158      H3163   1.085       .  S
C3159      C3160   1.413       .  A
C3159      C3166   1.442       .  S
C3160      C3161   1.404       .  A
C3161      C3162   1.409       .  A
C3161      H3164   1.085       .  S
C3162      C3165   1.444       .  S
C3165      N3167   1.157       .  T
C3166      N3168   1.156       .  T
C3169      C3170   1.410       .  A
C3169      C3174   1.402       .  A
C3170      C3171   1.405       .  A
C3170      H3175   1.085       .  S
C3171      C3172   1.411       .  A
C3171      C3178   1.444       .  S
C3172      C3173   1.416       .  A
C3173      C3174   1.401       .  A
C3173      H3176   1.084       .  S
C3174      C3177   1.443       .  S
C3177      N3179   1.157       .  T
C3178      N3180   1.157       .  T
C3182      C3183   1.394       .  A
C3183      C3184   1.412       .  A
C3183      C3190   1.445       .  S
C3184      C3185   1.409       .  A
C3185      C3186   1.408       .  A
C3185      H3188   1.085       .  S
C3186      C3189   1.442   1_655  S
C3190      N3192   1.157       .  T
C3193      C3194   1.407       .  A
C3193      C3198   1.415       .  A
C3194      C3195   1.400       .  A
C3194      H3199   1.085       .  S
C3195      C3196   1.414       .  A
C3195      C3202   1.445       .  S
C3196      C3197   1.410       .  A
C3197      C3198   1.412       .  A
C3197      H3200   1.084       .  S
C3198      C3201   1.442       .  S
C3201      N3203   1.157       .  T
C3202      N3204   1.157       .  T
C3205      C3206   1.409       .  A
C3205      C4326   1.420       .  A
C3206      C4323   1.402       .  A
C3206      H3211   1.079       .  S
C3207      C4322   1.402   1_545  A
C3207      C3208   1.412       .  A
C3207      C4330   1.444       .  S
C3208      C3209   1.406       .  A
C3209      C3210   1.410   1_545  A
C3209      H3212   1.085       .  S
C3210      C4321   1.421       .  A
C3210      C3213   1.444       .  S
C3213      N3215   1.158       .  T
C3214      C4323   1.445       .  S
C3214      N3216   1.157       .  T
C3217      C3218   1.402       .  A
C3217      C3222   1.430       .  A
C3218      C3219   1.404       .  A
C3218      H3223   1.085       .  S
C3219      C3220   1.421       .  A
C3219      C3226   1.446       .  S
C3220      C3221   1.394       .  A
C3221      C3222   1.401       .  A
C3221      H3224   1.085       .  S
C3222      C3225   1.445       .  S
C3225      N3227   1.157       .  T
C3226      N3228   1.158       .  T
C3229      C3230   1.404       .  A
C3229      C3234   1.416       .  A
C3230      C3231   1.399       .  A
C3230      H3235   1.085       .  S
C3231      C3232   1.413       .  A
C3231      C3238   1.446       .  S
C3232      C3233   1.397       .  A
C3233      C3234   1.400       .  A
C3233      H3236   1.085       .  S
C3234      C3237   1.438       .  S
C3237      N3239   1.155       .  T
C3238      N3240   1.157       .  T
C3241      C3242   1.404       .  A
C3241      C3246   1.411       .  A
C3242      C3243   1.406       .  A
C3242      H3247   1.085       .  S
C3243      C3244   1.415       .  A
C3243      C3250   1.441       .  S
C3244      C3245   1.404       .  A
C3245      C3246   1.399       .  A
C3245      H3248   1.085       .  S
C3246      C3249   1.445       .  S
C3249      N3251   1.157       .  T
C3250      N3252   1.156       .  T
C3253      C3254   1.409       .  A
C3253      C3258   1.414       .  A
C3254      C3255   1.410       .  A
C3254      H3259   1.085       .  S
C3255      C3256   1.414       .  A
C3255      C3262   1.443       .  S
C3256      C3257   1.405       .  A
C3257      C3258   1.398       .  A
C3257      H3260   1.085       .  S
C3258      C3261   1.445       .  S
C3261      N3263   1.157       .  T
C3262      N3264   1.157       .  T
C3265      C3266   1.399       .  A
C3265      C3270   1.413       .  A
C3266      C3267   1.393       .  A
C3266      H3271   1.085       .  S
C3267      C3268   1.413       .  A
C3267      C3274   1.445       .  S
C3268      C3466   1.470   1_545  S
C3268      C3269   1.401       .  A
C3269      C3270   1.401       .  A
C3269      H4388   1.085   1_545  S
H3272      C4385   1.085       .  S
C3273      N3275   1.157       .  T
C3274      N3276   1.157       .  T
C3277      C3278   1.411       .  A
C3277      C3282   1.405       .  A
C3278      C3279   1.405       .  A
C3278      H3283   1.085       .  S
C3279      C3280   1.412       .  A
C3279      C3286   1.443       .  S
C3280      C3281   1.418       .  A
C3281      C3282   1.404       .  A
C3281      H3284   1.084       .  S
C3282      C3285   1.443       .  S
C3285      N3287   1.157       .  T
C3286      N3288   1.157       .  T
C3289      C3290   1.407       .  A
C3289      C3294   1.411       .  A
C3290      C3291   1.409       .  A
C3290      H3295   1.085       .  S
C3291      C3292   1.416       .  A
C3291      C3298   1.443       .  S
C3292      C3293   1.407       .  A
C3293      C3294   1.401       .  A
C3293      H3296   1.085       .  S
C3294      C3297   1.444       .  S
C3297      N3299   1.157       .  T
C3298      N3300   1.157       .  T
C3301      C4418   1.401   1_545  A
C3301      C3306   1.410   1_545  A
C3302      C4417   1.403       .  A
C3302      C3303   1.406       .  A
C3302      H3307   1.085       .  S
C3303      C3304   1.415       .  A
C3303      C3310   1.441       .  S
C3304      C3305   1.404       .  A
C3305      C4422   1.397       .  A
C3305      H3308   1.085       .  S
C3306      C4421   1.398       .  A
C3306      C3309   1.445       .  S
C3309      N3311   1.157   1_565  T
C3310      N3312   1.156       .  T
C3313      C3314   1.409       .  A
C3313      C3318   1.412       .  A
C3314      C3315   1.412       .  A
C3314      H3319   1.084       .  S
C3315      C3316   1.409       .  A
C3315      C3322   1.441       .  S
C3316      C3317   1.402       .  A
C3317      C3318   1.392       .  A
C3317      H3320   1.086       .  S
C3318      C3321   1.446       .  S
C3321      N3323   1.157       .  T
C3322      N3324   1.157       .  T
C3325      C3326   1.401       .  A
C3325      C3330   1.416       .  A
C3326      C3327   1.395       .  A
C3326      H3331   1.085       .  S
C3327      C3328   1.413       .  A
C3327      C3334   1.445       .  S
C3328      C3329   1.403       .  A
C3329      C3330   1.404       .  A
C3329      H3332   1.084       .  S
C3330      C3333   1.444       .  S
C3333      N3335   1.157       .  T
C3334      N3336   1.157       .  T
C3337      C3338   1.404   1_655  A
C3337      C3342   1.408       .  A
C3338      H3343   1.085       .  S
C3339      C3340   1.420       .  A
C3339      C3346   1.444       .  S
C3340      C3341   1.410       .  A
C3341      H3344   1.081       .  S
C3342      C3345   1.444       .  S
C3345      N3347   1.157       .  T
C3346      N3348   1.157       .  T
O3349     Ni3355   1.890       .  S
O3349      C3370   1.258       .  A
O3350     Ni3373   1.895       .  S
O3350      C3359   1.264       .  A
O3351     Ni3355   1.895       .  S
O3351     Ni3373   1.896       .  S
O3351     Ni3367   1.929       .  S
O3351      H3374   0.966       .  S
C3352      O3369   1.283       .  A
C3352      O3361   1.283       .  A
C3352      C4429   1.482       .  S
O3353     Ni3372   1.947       .  S
O3353      C3359   1.274       .  A
O3354     Ni3372   1.892       .  S
O3354      C3356   1.267       .  A
Ni3355     O3360   1.896       .  S
C3356      O3366   1.279       .  A
C3356      C4408   1.491       .  S
O3357     Ni3373   1.920       .  S
O3358      C3363   1.277       .  A
C3359      C4453   1.481       .  S
O3360      C3362   1.265       .  A
O3361     Ni3372   1.927       .  S
C3362      O3368   1.271       .  A
C3362      C4417   1.480       .  S
C3363      C4441   1.481       .  S
H3364      O3365   0.966       .  S
O3365     Ni3373   1.904       .  S
O3365     Ni3367   1.910       .  S
O3365     Ni3372   1.885       .  S
O3366     Ni3367   1.951       .  S
Ni3367     O3371   1.942       .  S
Ni3367     O3369   1.934       .  S
O3368     Ni3373   1.935       .  S
C3370      O3371   1.275       .  A
C3370      C4393   1.476       .  S
O3375     Ni3381   1.897       .  S
O3375      C3396   1.260       .  A
O3376     Ni3399   1.891       .  S
O3376      C3385   1.263       .  A
O3377     Ni3381   1.905       .  S
O3377     Ni3399   1.907       .  S
O3377     Ni3393   1.926       .  S
O3377      H3400   0.965       .  S
C3378      O3395   1.283       .  A
C3378      O3387   1.286       .  A
C3378      C4369   1.488       .  S
O3379     Ni3398   1.962       .  S
O3379      C3385   1.279       .  A
O3380     Ni3398   1.901       .  S
O3380      C3382   1.269       .  A
Ni3381     O3384   1.912       .  S
Ni3381     O3386   1.895       .  S
C3382      O3392   1.278       .  A
C3382      C4357   1.483       .  S
O3383     Ni3399   1.921       .  S
O3383      C3389   1.274       .  A
O3384      C3389   1.274       .  A
C3385      C4456   1.503       .  S
O3386      C3388   1.264       .  A
O3387     Ni3398   1.939       .  S
C3388      O3394   1.268       .  A
C3388      C4348   1.470       .  S
H3390      O3391   0.966       .  S
O3391     Ni3399   1.902       .  S
O3391     Ni3393   1.909       .  S
O3391     Ni3398   1.890       .  S
O3392     Ni3393   1.944       .  S
Ni3393     O3397   1.941       .  S
Ni3393     O3395   1.932       .  S
O3394     Ni3399   1.925       .  S
C3396      O3397   1.276       .  A
C3396      C4333   1.480       .  S
O3401     Ni3407   1.897       .  S
O3401      C3422   1.260       .  A
O3402     Ni3425   1.901       .  S
O3402      C3411   1.271       .  A
O3403     Ni3407   1.890       .  S
O3403     Ni3425   1.897       .  S
O3403     Ni3419   1.932       .  S
O3403      H3426   0.966       .  S
C3404      O3421   1.287       .  A
C3404      O3413   1.283       .  A
C3404      C4360   1.491       .  S
O3405     Ni3424   1.953       .  S
O3405      C3411   1.278       .  A
O3406     Ni3424   1.901       .  S
O3406      C3408   1.271       .  A
Ni3407     O3412   1.893       .  S
C3408      O3418   1.278       .  A
C3408      C4309   1.499       .  S
O3409      C3415   1.277       .  A
O3410      C3415   1.275       .  A
C3411      C4321   1.505       .  S
O3412      C3414   1.266       .  A
O3413     Ni3424   1.931       .  S
C3414      O3420   1.274       .  A
C3414      C4297   1.486       .  S
C3415      C4345   1.476       .  S
H3416      O3417   0.966       .  S
O3417     Ni3425   1.907       .  S
O3417     Ni3419   1.909       .  S
O3417     Ni3424   1.882       .  S
O3418     Ni3419   1.950       .  S
Ni3419     O3423   1.944       .  S
Ni3419     O3421   1.944       .  S
O3420     Ni3425   1.946       .  S
C3422      O3423   1.278       .  A
C3422      C4285   1.486       .  S
O3427     Ni3433   1.896       .  S
O3427      C3448   1.258       .  A
O3428     Ni3451   1.895       .  S
O3428      C3437   1.265       .  A
O3429     Ni3433   1.896       .  S
O3429     Ni3451   1.901       .  S
O3429     Ni3445   1.922       .  S
O3429      H3452   0.966       .  S
C3430      O3447   1.284       .  A
C3430      O3439   1.287       .  A
C3430      C4273   1.488       .  S
O3431     Ni3450   1.962       .  S
O3431      C3437   1.280       .  A
O3432     Ni3450   1.895       .  S
O3432      C3434   1.269       .  A
Ni3433     O3436   1.913       .  S
Ni3433     O3438   1.891       .  S
C3434      O3444   1.277       .  A
C3434      C4432   1.482       .  S
O3435     Ni3451   1.915       .  S
O3435      C3441   1.275       .  A
O3436      C3441   1.276       .  A
C3437      C4324   1.494       .  S
O3438      C3440   1.264       .  A
O3439     Ni3450   1.939       .  S
C3440      O3446   1.269       .  A
C3440      C4444   1.475       .  S
H3442      O3443   0.966       .  S
O3443     Ni3451   1.897       .  S
O3443     Ni3445   1.903       .  S
O3443     Ni3450   1.878       .  S
O3444     Ni3445   1.946       .  S
Ni3445     O3449   1.941       .  S
Ni3445     O3447   1.930       .  S
O3446     Ni3451   1.931       .  S
C3448      O3449   1.276       .  A
C3448      C4249   1.491       .  S
O3453     Ni3459   1.891       .  S
O3453      C3474   1.255       .  A
O3454     Ni3477   1.903       .  S
O3454      C3463   1.269       .  A
O3455     Ni3459   1.896       .  S
O3455     Ni3477   1.901       .  S
O3455     Ni3471   1.931       .  S
O3455      H3478   0.966       .  S
C3456      O3473   1.284       .  A
C3456      O3465   1.284       .  A
C3456      C4312   1.499       .  S
O3457     Ni3476   1.958       .  S
O3457      C3463   1.279       .  A
O3458     Ni3476   1.898       .  S
O3458      C3460   1.269       .  A
Ni3459     O3462   1.908       .  S
Ni3459     O3464   1.887       .  S
C3460      O3470   1.280       .  A
C3460      C4372   1.487       .  S
O3461     Ni3477   1.936       .  S
O3461      C3467   1.280       .  A
O3462      C3467   1.276       .  A
C3463      C4237   1.508       .  S
O3464      C3466   1.262       .  A
O3465     Ni3476   1.933       .  S
C3466      O3472   1.268       .  A
C3467      C4300   1.495       .  S
H3468      O3469   0.966       .  S
O3469     Ni3477   1.910       .  S
O3469     Ni3471   1.915       .  S
O3469     Ni3476   1.882       .  S
O3470     Ni3471   1.950       .  S
Ni3471     O3475   1.951       .  S
Ni3471     O3473   1.940       .  S
O3472     Ni3477   1.928       .  S
C3474      O3475   1.277       .  A
C3474      C4225   1.491       .  S
O3479     Ni3485   1.893       .  S
O3479      C3500   1.258       .  A
O3480     Ni3503   1.903       .  S
O3480      C3489   1.267       .  A
O3481     Ni3485   1.901       .  S
O3481     Ni3503   1.906       .  S
O3481     Ni3497   1.930       .  S
O3481      H3504   0.965       .  S
C3482      O3499   1.284       .  A
C3482      O3491   1.286       .  A
C3482      C4405   1.494       .  S
O3483     Ni3502   1.963       .  S
O3483      C3489   1.280       .  A
O3484     Ni3502   1.899       .  S
O3484      C3486   1.269       .  A
Ni3485     O3488   1.910       .  S
Ni3485     O3490   1.896       .  S
C3486      O3496   1.277       .  A
C3486      C4276   1.484       .  S
O3487     Ni3503   1.926       .  S
O3487      C3493   1.276       .  A
O3488      C3493   1.274       .  A
C3489      C4240   1.496       .  S
O3490      C3492   1.266       .  A
O3491     Ni3502   1.942       .  S
C3492      O3498   1.269       .  A
C3493      C4420   1.480       .  S
H3494      O3495   0.966       .  S
O3495     Ni3503   1.906       .  S
O3495     Ni3497   1.913       .  S
O3495     Ni3502   1.887       .  S
O3496     Ni3497   1.943       .  S
Ni3497     O3501   1.947       .  S
Ni3497     O3499   1.935       .  S
O3498     Ni3503   1.927       .  S
C3500      O3501   1.277       .  A
C3500      C4213   1.484       .  S
O3505     Ni3511   1.893       .  S
O3505      C3526   1.259       .  A
O3506     Ni3529   1.886       .  S
O3506      C3515   1.262       .  A
O3507     Ni3511   1.901       .  S
O3507     Ni3529   1.896       .  S
O3507      H3530   0.966       .  S
C3508      O3525   1.281       .  A
C3508      O3517   1.287       .  A
C3508      C4168   1.489       .  S
O3509     Ni3528   1.973       .  S
O3510     Ni3528   1.906       .  S
O3510      C3512   1.269       .  A
Ni3511     O3514   1.912       .  S
Ni3511     O3516   1.905       .  S
C3512      O3522   1.277       .  A
C3512      C4189   1.492       .  S
O3513     Ni3529   1.924       .  S
O3513      C3519   1.276       .  A
O3514      C3519   1.276       .  A
C3515      C4204   1.502       .  S
O3516      C3518   1.266       .  A
O3517     Ni3528   1.949       .  S
C3518      O3524   1.268       .  A
C3518      C4180   1.476       .  S
C3519      C4153   1.473       .  S
O3521     Ni3523   1.914       .  S
O3521     Ni3528   1.894       .  S
O3522     Ni3523   1.949       .  S
Ni3523     O3527   1.940       .  S
Ni3523     O3525   1.924       .  S
O3524     Ni3529   1.929       .  S
C3526      C4144   1.476       .  S
O3531     Ni3537   1.897       .  S
O3531      C3552   1.258       .  A
O3532     Ni3555   1.902       .  S
O3532      C3541   1.267       .  A
O3533     Ni3537   1.887       .  S
O3533     Ni3555   1.900       .  S
O3533     Ni3549   1.919       .  S
O3533      H3556   0.966       .  S
C3534      O3551   1.282       .  A
C3534      O3543   1.285       .  A
C3534      C4093   1.492       .  S
O3535     Ni3554   1.958       .  S
O3535      C3541   1.279       .  A
O3536     Ni3554   1.902       .  S
O3536      C3538   1.270       .  A
Ni3537     O3540   1.908       .  S
Ni3537     O3542   1.890       .  S
C3538      O3548   1.277       .  A
O3539     Ni3555   1.933       .  S
O3539      C3545   1.280       .  A
O3540      C3545   1.278       .  A
C3541      C4201   1.490       .  S
O3542      C3544   1.264       .  A
O3543     Ni3554   1.939       .  S
C3544      O3550   1.271       .  A
C3544      C4129   1.481       .  S
C3545      C4108   1.487       .  S
H3546      O3547   0.966       .  S
O3547     Ni3555   1.909       .  S
O3547     Ni3549   1.911       .  S
O3547     Ni3554   1.885       .  S
O3548     Ni3549   1.945       .  S
Ni3549     O3553   1.947       .  S
Ni3549     O3551   1.930       .  S
O3550     Ni3555   1.936       .  S
C3552      O3553   1.276       .  A
C3552      C4336   1.494       .  S
O3557     Ni3563   1.886       .  S
O3557      C3578   1.255       .  A
O3558     Ni3581   1.898       .  S
O3558      C3567   1.266       .  A
O3559     Ni3563   1.896       .  S
O3559     Ni3581   1.895       .  S
O3559     Ni3575   1.925       .  S
O3559      H3582   0.973       .  S
C3560      O3577   1.280       .  A
C3560      O3569   1.282       .  A
O3561     Ni3580   1.946       .  S
O3561      C3567   1.276       .  A
O3562     Ni3580   1.901       .  S
O3562      C3564   1.268       .  A
Ni3563     O3566   1.904       .  S
Ni3563     O3568   1.889       .  S
C3564      O3574   1.276       .  A
C3564      C4060   1.484       .  S
O3565     Ni3581   1.930       .  S
O3565      C3571   1.281       .  A
O3566      C3571   1.276       .  A
C3567      C4084   1.484       .  S
O3568      C3570   1.263       .  A
O3569     Ni3580   1.933       .  S
C3570      O3576   1.268       .  A
C3570      C4069   1.469       .  S
C3571      C4132   1.481       .  S
H3572      O3573   0.965       .  S
O3573     Ni3581   1.914       .  S
O3573     Ni3575   1.916       .  S
O3573     Ni3580   1.894       .  S
O3574     Ni3575   1.939       .  S
Ni3575     O3579   1.941       .  S
Ni3575     O3577   1.928       .  S
O3576     Ni3581   1.928       .  S
C3578      O3579   1.272       .  A
C3578      C4228   1.476       .  S
O3583     Ni3589   1.895       .  S
O3583      C3604   1.258       .  A
O3584     Ni3607   1.887       .  S
O3584      C3593   1.263       .  A
O3585     Ni3589   1.900       .  S
O3585     Ni3607   1.896       .  S
O3585     Ni3601   1.919       .  S
O3585      H3608   0.968       .  S
C3586      O3603   1.282       .  A
C3586      O3595   1.287       .  A
C3586      C4045   1.491       .  S
O3587     Ni3606   1.953       .  S
O3587      C3593   1.277       .  A
O3588     Ni3606   1.891       .  S
O3588      C3590   1.268       .  A
Ni3589     O3592   1.917       .  S
Ni3589     O3594   1.895       .  S
C3590      O3600   1.281       .  A
C3590      C4165   1.485       .  S
O3591     Ni3607   1.918       .  S
O3591      C3597   1.277       .  A
O3592      C3597   1.278       .  A
C3593      C4081   1.495       .  S
O3594      C3596   1.263       .  A
O3595     Ni3606   1.935       .  S
C3596      O3602   1.267       .  A
C3596      C4156   1.482       .  S
C3597      C4033   1.474       .  S
H3598      O3599   0.966       .  S
O3599     Ni3607   1.904       .  S
O3599     Ni3601   1.901       .  S
O3599     Ni3606   1.878       .  S
O3600     Ni3601   1.956       .  S
Ni3601     O3605   1.933       .  S
Ni3601     O3603   1.928       .  S
O3602     Ni3607   1.931       .  S
C3604      O3605   1.273       .  A
C3604      C4024   1.488       .  S
O3609     Ni3615   1.900       .  S
O3610     Ni3633   1.886       .  S
O3610      C3619   1.263   1_565  A
O3611     Ni3615   1.883       .  S
O3611     Ni3633   1.893       .  S
C3612      O3629   1.286       .  A
C3612      O3621   1.284       .  A
C3612      C4192   1.490       .  S
O3613     Ni3632   1.957       .  S
O3614     Ni3632   1.895       .  S
O3614      C3616   1.269       .  A
Ni3615     O3618   1.916       .  S
Ni3615     O3620   1.896       .  S
C3616      O3626   1.280       .  A
C3616      C4048   1.486       .  S
O3617     Ni3633   1.934       .  S
O3617      C3623   1.278       .  A
O3618      C3623   1.277       .  A
C3619      C4012   1.486   1_545  S
O3620      C3622   1.268       .  A
O3621     Ni3632   1.938       .  S
C3622      O3628   1.267       .  A
C3622      C4036   1.471       .  S
C3623      C4177   1.488       .  S
H3624      O3625   0.966       .  S
O3625     Ni3627   1.906       .  S
O3625     Ni3632   1.878       .  S
O3626     Ni3627   1.950       .  S
Ni3627     O3631   1.943       .  S
Ni3627     O3629   1.941       .  S
O3628     Ni3633   1.924       .  S
C3630      O3631   1.281       .  A
C3630      C4000   1.489       .  S
O3635     Ni3641   1.895       .  S
O3635      C3656   1.259       .  A
O3636     Ni3659   1.896       .  S
O3636      C3645   1.267       .  A
O3637     Ni3641   1.886       .  S
O3637     Ni3659   1.893       .  S
O3637     Ni3653   1.921       .  S
O3637      H3660   0.969       .  S
C3638      O3655   1.281       .  A
C3638      O3647   1.283       .  A
O3639     Ni3658   1.949       .  S
O3639      C3645   1.277       .  A
O3640     Ni3658   1.905       .  S
O3640      C3642   1.270       .  A
Ni3641     O3644   1.907       .  S
Ni3641     O3646   1.893       .  S
C3642      O3652   1.275       .  A
O3643     Ni3659   1.925       .  S
O3643      C3649   1.279       .  A
O3644      C3649   1.276       .  A
C3645      C4009   1.498       .  S
O3646      C3648   1.264       .  A
O3647     Ni3658   1.932       .  S
C3648      O3654   1.271       .  A
C3648      C4105   1.479       .  S
C3649      C4072   1.474       .  S
H3650      O3651   0.966       .  S
O3651     Ni3659   1.903       .  S
O3651     Ni3653   1.910       .  S
O3651     Ni3658   1.885       .  S
O3652     Ni3653   1.939       .  S
Ni3653     O3657   1.941       .  S
Ni3653     O3655   1.926       .  S
O3654     Ni3659   1.935       .  S
C3656      O3657   1.275       .  A
C3656      C4288   1.492       .  S
O3661     Ni3667   1.889       .  S
O3661      C3682   1.256       .  A
O3662     Ni3685   1.891       .  S
O3662      C3671   1.263       .  A
O3663     Ni3667   1.897       .  S
O3663     Ni3685   1.893       .  S
O3663     Ni3679   1.929       .  S
O3663      H3686   0.966       .  S
C3664      O3681   1.286       .  A
C3664      O3673   1.283       .  A
O3665     Ni3684   1.958       .  S
O3665      C3671   1.279       .  A
O3666     Ni3684   1.896       .  S
O3666      C3668   1.269       .  A
Ni3667     O3670   1.913       .  S
Ni3667     O3672   1.896       .  S
C3668      O3678   1.280       .  A
C3668      C3961   1.489       .  S
O3669     Ni3685   1.924       .  S
O3669      C3675   1.278       .  A
O3670      C3675   1.277       .  A
C3671      C3988   1.501       .  S
O3672      C3674   1.264       .  A
O3673     Ni3684   1.928       .  S
C3674      O3680   1.266       .  A
C3674      C3976   1.476       .  S
C3675      C3949   1.475       .  S
H3676      O3677   0.966       .  S
O3677     Ni3685   1.904       .  S
O3677     Ni3679   1.912       .  S
O3677     Ni3684   1.883       .  S
O3678     Ni3679   1.946       .  S
Ni3679     O3683   1.955       .  S
Ni3679     O3681   1.937       .  S
O3680     Ni3685   1.921       .  S
C3682      O3683   1.278       .  A
C3682      C4216   1.496       .  S
O3687     Ni3693   1.889       .  S
O3687      C3708   1.257       .  A
O3688     Ni3711   1.893       .  S
O3688      C3697   1.265       .  A
O3689     Ni3693   1.894       .  S
O3689     Ni3711   1.896       .  S
O3689     Ni3705   1.927       .  S
O3689      H3712   0.966       .  S
C3690      O3707   1.283       .  A
C3690      O3699   1.287       .  A
C3690      C3901   1.498       .  S
O3691     Ni3710   1.959       .  S
O3691      C3697   1.280       .  A
O3692     Ni3710   1.894       .  S
O3692      C3694   1.267       .  A
Ni3693     O3696   1.908       .  S
Ni3693     O3698   1.893       .  S
C3694      O3704   1.279       .  A
C3694      C3928   1.493       .  S
O3695     Ni3711   1.926       .  S
O3695      C3701   1.278       .  A
O3696      C3701   1.276       .  A
C3697      C3985   1.488       .  S
O3698      C3700   1.264       .  A
O3699     Ni3710   1.940       .  S
C3700      O3706   1.269       .  A
C3700      C3916   1.476       .  S
C3701      C3892   1.474       .  S
H3702      O3703   0.966       .  S
O3703     Ni3711   1.905       .  S
O3703     Ni3705   1.901       .  S
O3703     Ni3710   1.879       .  S
O3704     Ni3705   1.948       .  S
Ni3705     O3709   1.935       .  S
Ni3705     O3707   1.931       .  S
O3706     Ni3711   1.928       .  S
C3708      O3709   1.273       .  A
C3708      C4021   1.473       .  S
O3713     Ni3719   1.895       .  S
O3713      C3734   1.260       .  A
O3714     Ni3737   1.891       .  S
O3714      C3723   1.264       .  A
O3715     Ni3719   1.894       .  S
O3715     Ni3737   1.897       .  S
O3715     Ni3731   1.924       .  S
O3715      H3738   0.966       .  S
C3716      O3733   1.283       .  A
C3716      O3725   1.283       .  A
C3716      C3856   1.494       .  S
O3717     Ni3736   1.957       .  S
O3717      C3723   1.277       .  A
O3718     Ni3736   1.894       .  S
O3718      C3720   1.270       .  A
Ni3719     O3722   1.911       .  S
Ni3719     O3724   1.892       .  S
C3720      O3730   1.276       .  A
O3721     Ni3737   1.931       .  S
O3721      C3727   1.279       .  A
O3722      C3727   1.276       .  A
C3723      C3880   1.500       .  S
O3724      C3726   1.264       .  A
O3725     Ni3736   1.938       .  S
C3726      O3732   1.268       .  A
C3726      C3952   1.470       .  S
C3727      C3865   1.484       .  S
H3728      O3729   0.966       .  S
O3729     Ni3737   1.914       .  S
O3729     Ni3731   1.914       .  S
O3729     Ni3736   1.894       .  S
O3730     Ni3731   1.938       .  S
Ni3731     O3735   1.940       .  S
Ni3731     O3733   1.938       .  S
O3732     Ni3737   1.924       .  S
C3734      O3735   1.276       .  A
C3734      C4252   1.479       .  S
O3739     Ni3745   1.899       .  S
O3739      C3760   1.260       .  A
O3740     Ni3763   1.898       .  S
O3740      C3749   1.265       .  A
O3741     Ni3745   1.895       .  S
O3741     Ni3763   1.899       .  S
O3741      H3764   0.966       .  S
C3742      O3759   1.280       .  A
C3742      O3751   1.283       .  A
C3742      C3925   1.492       .  S
O3743     Ni3762   1.954       .  S
O3744     Ni3762   1.900       .  S
O3744      C3746   1.269       .  A
Ni3745     O3748   1.915       .  S
Ni3745     O3750   1.893       .  S
C3746      O3756   1.280       .  A
C3746      C3832   1.496       .  S
O3747     Ni3763   1.921       .  S
O3747      C3753   1.276       .  A
O3748      C3753   1.278       .  A
C3749      C3877   1.483       .  S
O3750      C3752   1.265       .  A
O3751     Ni3762   1.930       .  S
C3752      O3758   1.269       .  A
C3752      C3844   1.479       .  S
C3753      C3913   1.484       .  S
O3755     Ni3757   1.916       .  S
O3755     Ni3762   1.889       .  S
O3756     Ni3757   1.953       .  S
Ni3757     O3761   1.944       .  S
Ni3757     O3759   1.927       .  S
O3758     Ni3763   1.931       .  S
C3760      C3997   1.494       .  S
O3765     Ni3771   1.901       .  S
O3766     Ni3789   1.886       .  S
O3766      C3775   1.262   1_655  A
O3767     Ni3771   1.896       .  S
O3767     Ni3789   1.895       .  S
C3768      O3785   1.282       .  A
C3768      O3777   1.284       .  A
C3768      C3829   1.500       .  S
O3769     Ni3788   1.960       .  S
O3770     Ni3788   1.893       .  S
O3770      C3772   1.270       .  A
Ni3771     O3774   1.914       .  S
Ni3771     O3776   1.897       .  S
C3772      O3782   1.282       .  A
C3772      C3904   1.493       .  S
O3773     Ni3789   1.926       .  S
O3773      C3779   1.279       .  A
O3774      C3779   1.278       .  A
C3775      C3817   1.496   1_455  S
O3776      C3778   1.264       .  A
O3777     Ni3788   1.937       .  S
C3778      O3784   1.264       .  A
C3778      C3889   1.469       .  S
C3779      C3841   1.483       .  S
H3780      O3781   0.966       .  S
O3781     Ni3783   1.918       .  S
O3781     Ni3788   1.889       .  S
O3782     Ni3783   1.956       .  S
Ni3783     O3787   1.947       .  S
Ni3783     O3785   1.936       .  S
O3784     Ni3789   1.917       .  S
C3786      O3787   1.278       .  A
C3786      C4141   1.485       .  S
O3791     Ni3797   1.896       .  S
O3791      C3812   1.259       .  A
O3792     Ni3815   1.892       .  S
O3792      C3801   1.265       .  A
O3793     Ni3797   1.889       .  S
O3793     Ni3815   1.893       .  S
O3793     Ni3809   1.920       .  S
O3793      H3816   0.966       .  S
C3794      O3811   1.281       .  A
C3794      O3803   1.284       .  A
O3795     Ni3814   1.954       .  S
O3795      C3801   1.277       .  A
O3796     Ni3814   1.898       .  S
O3796      C3798   1.268       .  A
Ni3797     O3800   1.904       .  S
Ni3797     O3802   1.895       .  S
C3798      O3808   1.279       .  A
O3799     Ni3815   1.932       .  S
O3799      C3805   1.279       .  A
O3800      C3805   1.277       .  A
C3801      C3820   1.481       .  S
O3802      C3804   1.265       .  A
O3803     Ni3814   1.938       .  S
C3804      O3810   1.270       .  A
C3804      C3868   1.480       .  S
C3805      C3973   1.483       .  S
H3806      O3807   0.966       .  S
O3807     Ni3815   1.907       .  S
O3807     Ni3809   1.911       .  S
O3807     Ni3814   1.887       .  S
O3808     Ni3809   1.949       .  S
Ni3809     O3813   1.939       .  S
Ni3809     O3811   1.927       .  S
O3810     Ni3815   1.937       .  S
C3812      O3813   1.276       .  A
C3812      C4396   1.488       .  S
C3817      C3818   1.411       .  A
C3818      C3819   1.398       .  A
C3818      H3823   1.084       .  S
C3819      C3820   1.407       .  A
C3819      C3826   1.444       .  S
C3820      C3821   1.405       .  A
C3822      C3825   1.444       .  S
C3825      N3827   1.157       .  T
C3826      N3828   1.157       .  T
C3829      C3830   1.405       .  A
C3829      C3834   1.419       .  A
C3830      C3831   1.400       .  A
C3830      H3835   1.085       .  S
C3831      C3832   1.415       .  A
C3831      C3838   1.444       .  S
C3832      C3833   1.407       .  A
C3833      C3834   1.412       .  A
C3833      H3836   1.084       .  S
C3834      C3837   1.442       .  S
C3837      N3839   1.157       .  T
C3838      N3840   1.157       .  T
C3841      C3842   1.408       .  A
C3841      C3846   1.412       .  A
C3842      C3843   1.404       .  A
C3842      H3847   1.084       .  S
C3843      C3844   1.410       .  A
C3843      C3850   1.441       .  S
C3844      C3845   1.404       .  A
C3845      C3846   1.395       .  A
C3845      H3848   1.085       .  S
C3846      C3849   1.445       .  S
C3849      N3851   1.157       .  T
C3850      N3852   1.156       .  T
C3853      C3854   1.402       .  A
C3853      C3858   1.412       .  A
C3854      C3855   1.407       .  A
C3854      H3859   1.084       .  S
C3855      C3856   1.417       .  A
C3855      C3862   1.440       .  S
C3856      C3857   1.406       .  A
C3857      C3858   1.405       .  A
C3857      H3860   1.085       .  S
C3858      C3861   1.443       .  S
C3861      N3863   1.157       .  T
C3862      N3864   1.156       .  T
C3865      C3866   1.408       .  A
C3865      C3870   1.413       .  A
C3866      C3867   1.407       .  A
C3866      H3871   1.083       .  S
C3867      C3868   1.411       .  A
C3867      C3874   1.442       .  S
C3868      C3869   1.403       .  A
C3869      C3870   1.395       .  A
C3869      H3872   1.086       .  S
C3870      C3873   1.445       .  S
C3873      N3875   1.157       .  T
C3874      N3876   1.157       .  T
C3877      C3878   1.404       .  A
C3877      C3882   1.408       .  A
C3878      C3879   1.406       .  A
C3878      H3883   1.085       .  S
C3879      C3880   1.419       .  A
C3879      C3886   1.444       .  S
C3880      C3881   1.411       .  A
C3881      C3882   1.400       .  A
C3881      H3884   1.084       .  S
C3882      C3885   1.444       .  S
C3885      N3887   1.157       .  T
C3886      N3888   1.157       .  T
C3889      C3890   1.400       .  A
C3889      C3894   1.411       .  A
C3890      C3891   1.395       .  A
C3890      H3895   1.085       .  S
C3891      C3892   1.410       .  A
C3891      C3898   1.444       .  S
C3892      C3893   1.407       .  A
C3893      C3894   1.403       .  A
C3893      H3896   1.085       .  S
C3894      C3897   1.445       .  S
C3897      N3899   1.157       .  T
C3898      N3900   1.157       .  T
C3901      C3902   1.411       .  A
C3901      C3906   1.415       .  A
C3902      C3903   1.411       .  A
C3902      H3907   1.084       .  S
C3903      C3904   1.413       .  A
C3903      C3910   1.442       .  S
C3904      C3905   1.407       .  A
C3905      C3906   1.399       .  A
C3905      H3908   1.085       .  S
C3906      C3909   1.445       .  S
C3909      N3911   1.157       .  T
C3910      N3912   1.157       .  T
C3913      C3914   1.404       .  A
C3913      C3918   1.417       .  A
C3914      C3915   1.395       .  A
C3914      H3919   1.085       .  S
C3915      C3916   1.413       .  A
C3915      C3922   1.445       .  S
C3916      C3917   1.401       .  A
C3917      C3918   1.402       .  A
C3917      H3920   1.085       .  S
C3918      C3921   1.442       .  S
C3921      N3923   1.156       .  T
C3922      N3924   1.157       .  T
C3925      C3926   1.402       .  A
C3925      C3930   1.417       .  A
C3926      C3927   1.396       .  A
C3926      H3931   1.085       .  S
C3927      C3928   1.419       .  A
C3927      C3934   1.445       .  S
C3928      C3929   1.408       .  A
C3929      C3930   1.409       .  A
C3929      H3932   1.085       .  S
C3930      C3933   1.444       .  S
C3933      N3935   1.157       .  T
C3934      N3936   1.157       .  T
C3937      C3938   1.409       .  A
C3937      C3942   1.417       .  A
C3938      C3939   1.408       .  A
C3938      H3943   1.084       .  S
C3939      C3940   1.413       .  A
C3939      C3946   1.441       .  S
C3940      C3941   1.404       .  A
C3941      C3942   1.396       .  A
C3942      C3945   1.445       .  S
C3946      N3948   1.157   1_565  T
C3949      C3950   1.404       .  A
C3949      C3954   1.410       .  A
C3950      C3951   1.399       .  A
C3950      H3955   1.080       .  S
C3951      C3952   1.409       .  A
C3951      C3958   1.445       .  S
C3952      C3953   1.403       .  A
C3953      C3954   1.397       .  A
C3953      H3956   1.085       .  S
C3954      C3957   1.443       .  S
C3957      N3959   1.157       .  T
C3958      N3960   1.157       .  T
C3961      C3962   1.406       .  A
C3961      C3966   1.415       .  A
C3962      C3963   1.408       .  A
C3962      H3967   1.085       .  S
C3963      C3964   1.415       .  A
C3964      C3965   1.404       .  A
C3965      C3966   1.400       .  A
C3965      H3968   1.085       .  S
C3966      C3969   1.445       .  S
C3969      N3971   1.157       .  T
C3970      N3972   1.157       .  T
C3973      C3974   1.404       .  A
C3973      C3978   1.415       .  A
C3974      C3975   1.392       .  A
C3974      H3979   1.085       .  S
C3975      C3976   1.411       .  A
C3975      C3982   1.445       .  S
C3976      C3977   1.404       .  A
C3977      C3978   1.403       .  A
C3977      H3980   1.085       .  S
C3978      C3981   1.443       .  S
C3981      N3983   1.157       .  T
C3982      N3984   1.157       .  T
C3985      C3986   1.402       .  A
C3985      C3990   1.413       .  A
C3986      C3987   1.404       .  A
C3986      H3991   1.085       .  S
C3987      C3988   1.422       .  A
C3987      C3994   1.444       .  S
C3988      C3989   1.407       .  A
C3989      C3990   1.404       .  A
C3989      H3992   1.084       .  S
C3990      C3993   1.442       .  S
C3993      N3995   1.157       .  T
C3994      N3996   1.157       .  T
C3997      C3998   1.415       .  A
C3997      C4002   1.410       .  A
C3998      C3999   1.403   1_556  A
C3998      H4003   1.084       .  S
C3999      C4000   1.406       .  A
C3999      C4006   1.443       .  S
C4000      C4001   1.412       .  A
C4001      C4002   1.403   1_554  A
C4001      H4004   1.085       .  S
C4005      N4007   1.157       .  T
C4006      N4008   1.157       .  T
C4009      C4010   1.410       .  A
C4009      C4014   1.419       .  A
C4010      C4011   1.403       .  A
C4010      H4015   1.084       .  S
C4011      C4012   1.412       .  A
C4011      C4018   1.444       .  S
C4012      C4013   1.403   1_565  A
C4013      C4014   1.403   1_545  A
C4017      N4019   1.157       .  T
C4018      N4020   1.157       .  T
C4021      C4022   1.409       .  A
C4021      C4026   1.401       .  A
C4022      C4023   1.399   1_556  A
C4022      H4027   1.085       .  S
C4023      C4024   1.410       .  A
C4023      C4030   1.444       .  S
C4024      C4025   1.417       .  A
C4025      C4026   1.399   1_554  A
C4025      H4028   1.084       .  S
C4026      C4029   1.444       .  S
C4029      N4031   1.157       .  T
C4030      N4032   1.157       .  T
C4033      C4034   1.407       .  A
C4033      C4038   1.414       .  A
C4034      C4035   1.409       .  A
C4034      H4039   1.084       .  S
C4035      C4036   1.412       .  A
C4035      C4042   1.443       .  S
C4036      C4037   1.397       .  A
C4037      C4038   1.384       .  A
C4037      H4040   1.086       .  S
C4038      C4041   1.446       .  S
C4041      N4043   1.157       .  T
C4042      N4044   1.157       .  T
C4045      C4046   1.403       .  A
C4045      C4050   1.419       .  A
C4046      C4047   1.398       .  A
C4046      H4051   1.085       .  S
C4047      C4048   1.413       .  A
C4047      C4054   1.443       .  S
C4048      C4049   1.403       .  A
C4049      C4050   1.407       .  A
C4049      H4052   1.082       .  S
C4050      C4053   1.444       .  S
C4053      N4055   1.157       .  T
C4054      N4056   1.156       .  T
C4057      C4058   1.406       .  A
C4057      C4062   1.414       .  A
C4058      C4059   1.402       .  A
C4058      H4063   1.085       .  S
C4059      C4060   1.413       .  A
C4059      C4066   1.444       .  S
C4060      C4061   1.404       .  A
C4061      C4062   1.404       .  A
C4061      H4064   1.085       .  S
C4065      N4067   1.156       .  T
C4066      N4068   1.157       .  T
C4069      C4070   1.402       .  A
C4069      C4074   1.409       .  A
C4070      C4071   1.395       .  A
C4070      H4075   1.085       .  S
C4071      C4072   1.412       .  A
C4071      C4078   1.445       .  S
C4072      C4073   1.407       .  A
C4073      C4074   1.401       .  A
C4073      H4076   1.085       .  S
C4074      C4077   1.444       .  S
C4077      N4079   1.157       .  T
C4078      N4080   1.157       .  T
C4081      C4082   1.411       .  A
C4081      C4086   1.417       .  A
C4082      C4083   1.399       .  A
C4082      H4087   1.084       .  S
C4083      C4084   1.410       .  A
C4083      C4090   1.444       .  S
C4084      C4085   1.405       .  A
C4085      C4086   1.403       .  A
C4085      H4088   1.084       .  S
C4086      C4089   1.444       .  S
C4089      N4091   1.157       .  T
C4090      N4092   1.157       .  T
C4093      C4094   1.406       .  A
C4093      C4098   1.417       .  A
C4094      C4095   1.401       .  A
C4094      H4099   1.085       .  S
C4095      C4096   1.411       .  A
C4095      C4102   1.445       .  S
C4096      C4097   1.402       .  A
C4097      C4098   1.405       .  A
C4097      H4100   1.084       .  S
C4098      C4101   1.441       .  S
C4101      N4103   1.157       .  T
C4102      N4104   1.157       .  T
C4105      C4106   1.404       .  A
C4105      C4110   1.413       .  A
C4106      C4107   1.407       .  A
C4106      H4111   1.085       .  S
C4107      C4108   1.417       .  A
C4107      C4114   1.441       .  S
C4108      C4109   1.404       .  A
C4109      C4110   1.392       .  A
C4109      H4112   1.085       .  S
C4110      C4113   1.445       .  S
C4113      N4115   1.157       .  T
C4114      N4116   1.157       .  T
C4117      C4118   1.406       .  A
C4117      C4122   1.415       .  A
C4118      C4119   1.398       .  A
C4118      H4123   1.085       .  S
C4119      C4120   1.415       .  A
C4119      C4126   1.445       .  S
C4120      C4121   1.411       .  A
C4121      C4122   1.415       .  A
C4121      H4124   1.084       .  S
C4125      N4127   1.157       .  T
C4126      N4128   1.157       .  T
C4129      C4130   1.405       .  A
C4129      C4134   1.410       .  A
C4130      C4131   1.396       .  A
C4130      H4135   1.085       .  S
C4131      C4132   1.414       .  A
C4131      C4138   1.446       .  S
C4132      C4133   1.405       .  A
C4133      C4134   1.402       .  A
C4133      H4136   1.084       .  S
C4134      C4137   1.439       .  S
C4137      N4139   1.156       .  T
C4138      N4140   1.157       .  T
C4141      C4146   1.410       .  A
C4142      C4143   1.401   1_556  A
C4142      H4147   1.085       .  S
C4143      C4150   1.444       .  S
C4144      C4145   1.408       .  A
C4145      C4146   1.406   1_554  A
C4145      H4148   1.085       .  S
C4146      C4149   1.443       .  S
C4149      N4151   1.157       .  T
C4150      N4152   1.157       .  T
C4153      C4154   1.403       .  A
C4153      C4158   1.408       .  A
C4154      C4155   1.402       .  A
C4154      H4159   1.085       .  S
C4155      C4156   1.417       .  A
C4155      C4162   1.444       .  S
C4156      C4157   1.405       .  A
C4157      C4158   1.396       .  A
C4157      H4160   1.085       .  S
C4158      C4161   1.444       .  S
C4161      N4163   1.157       .  T
C4162      N4164   1.157       .  T
C4165      C4166   1.404       .  A
C4165      C4170   1.410       .  A
C4166      C4167   1.393       .  A
C4166      H4171   1.086       .  S
C4167      C4168   1.411       .  A
C4167      C4174   1.445       .  S
C4168      C4169   1.413       .  A
C4169      C4170   1.417       .  A
C4169      H4172   1.084       .  S
C4170      C4173   1.441       .  S
C4173      N4175   1.157       .  T
C4174      N4176   1.157       .  T
C4177      C4178   1.404       .  A
C4177      C4182   1.422       .  A
C4178      C4179   1.400       .  A
C4178      H4183   1.085       .  S
C4179      C4180   1.409       .  A
C4179      C4186   1.444       .  S
C4180      C4181   1.400       .  A
C4181      C4182   1.405       .  A
C4181      H4184   1.085       .  S
C4182      C4185   1.445       .  S
C4185      N4187   1.157       .  T
C4186      N4188   1.157       .  T
C4189      C4190   1.408       .  A
C4189      C4194   1.412       .  A
C4190      C4191   1.410       .  A
C4190      H4195   1.085       .  S
C4191      C4192   1.414       .  A
C4191      C4198   1.442       .  S
C4192      C4193   1.405       .  A
C4193      C4194   1.404       .  A
C4193      H4196   1.085       .  S
C4194      C4197   1.443       .  S
C4197      N4199   1.157       .  T
C4198      N4200   1.157       .  T
C4201      C4202   1.407       .  A
C4201      C4206   1.410       .  A
C4202      C4203   1.409       .  A
C4202      H4207   1.085       .  S
C4203      C4204   1.417       .  A
C4204      C4205   1.412       .  A
C4205      C4206   1.402       .  A
C4205      H4208   1.084       .  S
C4206      C4209   1.443       .  S
C4209      N4211   1.157       .  T
C4210      N4212   1.157       .  T
C4213      C4214   1.412       .  A
C4213      C4218   1.403       .  A
C4214      C4215   1.405       .  A
C4214      H4219   1.085       .  S
C4215      C4216   1.410       .  A
C4215      C4222   1.444       .  S
C4216      C4217   1.418       .  A
C4217      C4218   1.403       .  A
C4217      H4220   1.084       .  S
C4218      C4221   1.444       .  S
C4221      N4223   1.157       .  T
C4222      N4224   1.157       .  T
C4225      C4226   1.417       .  A
C4225      C4230   1.408       .  A
C4226      C4227   1.401       .  A
C4226      H4231   1.083       .  S
C4227      C4228   1.401       .  A
C4227      C4234   1.445       .  S
C4228      C4229   1.410       .  A
C4229      C4230   1.402       .  A
C4229      H4232   1.085       .  S
C4230      C4233   1.443       .  S
C4233      N4235   1.157       .  T
C4234      N4236   1.157   1_565  T
C4237      C4238   1.412       .  A
C4237      C4242   1.421       .  A
C4238      C4239   1.407       .  A
C4238      H4243   1.084       .  S
C4239      C4240   1.412       .  A
C4239      C4246   1.443       .  S
C4240      C4241   1.405       .  A
C4241      C4242   1.409       .  A
C4241      H4244   1.083       .  S
C4242      C4245   1.444       .  S
C4245      N4247   1.158       .  T
C4246      N4248   1.157       .  T
C4249      C4250   1.416       .  A
C4249      C4254   1.409       .  A
C4250      C4251   1.401       .  A
C4250      H4255   1.084       .  S
C4251      C4252   1.403       .  A
C4251      C4258   1.443       .  S
C4252      C4253   1.410       .  A
C4253      C4254   1.402       .  A
C4253      H4256   1.085       .  S
C4254      C4257   1.444       .  S
C4257      N4259   1.157       .  T
C4258      N4260   1.157       .  T
C4261      C4262   1.399       .  A
C4261      C4266   1.412       .  A
C4262      C4263   1.400       .  A
C4262      H4267   1.083       .  S
C4263      C4264   1.415       .  A
C4263      C4270   1.443       .  S
C4264      C4265   1.403       .  A
C4265      C4266   1.397       .  A
C4265      H4268   1.085       .  S
C4269      N4271   1.157       .  T
C4270      N4272   1.156   1_565  T
C4273      C4274   1.403       .  A
C4273      C4278   1.417       .  A
C4274      C4275   1.400       .  A
C4274      H4279   1.085       .  S
C4275      C4276   1.412       .  A
C4275      C4282   1.443       .  S
C4276      C4277   1.405       .  A
C4277      C4278   1.407       .  A
C4277      H4280   1.085       .  S
C4278      C4281   1.444       .  S
C4281      N4283   1.157       .  T
C4282      N4284   1.157       .  T
C4285      C4286   1.413       .  A
C4285      C4290   1.404       .  A
C4286      C4287   1.402       .  A
C4286      H4291   1.085       .  S
C4287      C4288   1.409       .  A
C4287      C4294   1.443       .  S
C4288      C4289   1.416       .  A
C4289      C4290   1.400       .  A
C4289      H4292   1.084       .  S
C4290      C4293   1.442       .  S
C4293      N4295   1.156       .  T
C4294      N4296   1.157       .  T
C4298      C4299   1.394       .  A
C4299      C4300   1.417       .  A
C4299      C4306   1.445       .  S
C4300      C4301   1.413       .  A
C4301      C4302   1.410       .  A
C4301      H4304   1.084       .  S
C4302      C4305   1.441   1_655  S
C4306      N4308   1.157       .  T
C4309      C4310   1.405       .  A
C4309      C4314   1.417       .  A
C4310      C4311   1.397       .  A
C4310      H4315   1.085       .  S
C4311      C4312   1.416       .  A
C4311      C4318   1.445       .  S
C4312      C4313   1.411       .  A
C4313      C4314   1.415       .  A
C4313      H4316   1.084       .  S
C4314      C4317   1.443       .  S
C4317      N4319   1.158       .  T
C4318      N4320   1.157       .  T
C4321      C4322   1.407       .  A
C4322      H4327   1.079       .  S
C4323      C4324   1.412       .  A
C4324      C4325   1.407       .  A
C4325      C4326   1.410       .  A
C4325      H4328   1.085       .  S
C4326      C4329   1.443       .  S
C4329      N4331   1.157       .  T
C4330      N4332   1.157       .  T
C4333      C4334   1.394       .  A
C4333      C4338   1.418       .  A
C4334      C4335   1.401       .  A
C4334      H4339   1.085       .  S
C4335      C4336   1.427       .  A
C4335      C4342   1.445       .  S
C4336      C4337   1.402       .  A
C4337      C4338   1.404       .  A
C4337      H4340   1.084       .  S
C4338      C4341   1.446       .  S
C4341      N4343   1.157       .  T
C4342      N4344   1.157       .  T
C4345      C4346   1.405       .  A
C4345      C4350   1.414       .  A
C4346      C4347   1.398       .  A
C4346      H4351   1.085       .  S
C4347      C4348   1.410       .  A
C4347      C4354   1.444       .  S
C4348      C4349   1.397       .  A
C4349      C4350   1.397       .  A
C4349      H4352   1.082       .  S
C4350      C4353   1.439       .  S
C4353      N4355   1.155       .  T
C4354      N4356   1.157       .  T
C4357      C4358   1.404       .  A
C4357      C4362   1.411       .  A
C4358      C4359   1.407       .  A
C4358      H4363   1.085       .  S
C4359      C4360   1.414       .  A
C4359      C4366   1.440       .  S
C4360      C4361   1.407       .  A
C4361      C4362   1.404       .  A
C4361      H4364   1.085       .  S
C4362      C4365   1.444       .  S
C4365      N4367   1.157       .  T
C4366      N4368   1.156       .  T
C4369      C4370   1.407       .  A
C4369      C4374   1.411       .  A
C4370      C4371   1.409       .  A
C4370      H4375   1.085       .  S
C4371      C4372   1.415       .  A
C4371      C4378   1.444       .  S
C4372      C4373   1.405       .  A
C4373      C4374   1.401       .  A
C4373      H4376   1.085       .  S
C4374      C4377   1.444       .  S
C4377      N4379   1.157       .  T
C4378      N4380   1.157       .  T
C4381      C4382   1.401       .  A
C4381      C4386   1.414       .  A
C4382      C4383   1.395       .  A
C4382      H4387   1.085       .  S
C4383      C4384   1.411       .  A
C4383      C4390   1.445       .  S
C4384      C4385   1.402       .  A
C4385      C4386   1.403       .  A
C4389      N4391   1.157       .  T
C4390      N4392   1.157       .  T
C4393      C4394   1.408       .  A
C4393      C4398   1.403       .  A
C4394      C4395   1.400       .  A
C4394      H4399   1.085       .  S
C4395      C4396   1.410       .  A
C4395      C4402   1.444       .  S
C4396      C4397   1.416       .  A
C4397      C4398   1.403       .  A
C4397      H4400   1.084       .  S
C4398      C4401   1.444       .  S
C4401      N4403   1.157       .  T
C4402      N4404   1.157       .  T
C4405      C4406   1.408       .  A
C4405      C4410   1.414       .  A
C4406      C4407   1.410       .  A
C4406      H4411   1.085       .  S
C4407      C4408   1.416       .  A
C4407      C4414   1.444       .  S
C4408      C4409   1.406       .  A
C4409      C4410   1.401       .  A
C4409      H4412   1.085       .  S
C4410      C4413   1.445       .  S
C4413      N4415   1.157       .  T
C4414      N4416   1.157       .  T
C4417      C4422   1.413       .  A
C4418      C4419   1.403       .  A
C4418      H4423   1.083   1_565  S
C4419      C4420   1.416       .  A
C4419      C4426   1.444       .  S
C4420      C4421   1.404       .  A
C4421      H4424   1.085       .  S
C4422      C4425   1.445       .  S
C4425      N4427   1.157       .  T
C4426      N4428   1.157       .  T
C4429      C4430   1.410       .  A
C4429      C4434   1.411       .  A
C4430      C4431   1.416       .  A
C4430      H4435   1.084       .  S
C4431      C4432   1.411       .  A
C4431      C4438   1.441       .  S
C4432      C4433   1.402       .  A
C4433      C4434   1.389       .  A
C4433      H4436   1.086       .  S
C4434      C4437   1.446       .  S
C4437      N4439   1.157       .  T
C4438      N4440   1.157       .  T
C4441      C4442   1.403       .  A
C4441      C4446   1.418       .  A
C4442      C4443   1.395       .  A
C4442      H4447   1.085       .  S
C4443      C4444   1.412       .  A
C4443      C4450   1.445       .  S
C4444      C4445   1.400       .  A
C4445      C4446   1.402       .  A
C4445      H4448   1.083       .  S
C4446      C4449   1.443       .  S
C4449      N4451   1.157       .  T
C4450      N4452   1.157       .  T
C4453      C4454   1.406   1_655  A
C4453      C4458   1.406       .  A
C4454      H4459   1.085       .  S
C4455      C4456   1.418       .  A
C4455      C4462   1.443       .  S
C4456      C4457   1.412       .  A
C4457      H4460   1.081       .  S
C4458      C4461   1.444       .  S
C4461      N4463   1.157       .  T
C4462      N4464   1.157       .  T
