geometry optimzed in LAMMPS
_audit_creation_date              2020-12-01 
_audit_creation_method            'lammps2cif' 
_symmetry_space_group_name_H-M    'P1' 
_symmetry_Int_Tables_number       1 
_symmetry_cell_setting            triclinic 
loop_ 
_symmetry_equiv_pos_as_xyz 
  x,y,z 
_cell_length_a                    74.21404553 
_cell_length_b                    74.1228985334367 
_cell_length_c                    29.56189562675424 
_cell_angle_alpha                 89.94663888284462 
_cell_angle_beta                  89.8373543164404 
_cell_angle_gamma                 90.10808690718763 
loop_ 
_atom_site_label 
_atom_site_type_symbol 
_atom_site_fract_x 
_atom_site_fract_y 
_atom_site_fract_z 
_atom_site_charge 
O1          O  0.88123232  0.20631309  0.44317365    -0.81400
C2          C  0.86153099  0.25848710  0.56994769     0.98000
O3          O  0.87143621  0.24467122  0.56877537    -0.70500
O4          O  0.88103205  0.21228249  0.54161200    -0.74100
Al5        Al  0.88402999  0.23585025  0.51710564     1.49000
C6          C  0.86907497  0.20021823  0.53937159     0.93300
O7          O  0.83181752  0.21835066  0.46406848    -0.80300
O8          O  0.84529488  0.25087536  0.41289817    -0.73800
Al9        Al  0.85733428  0.21454382  0.45614544     1.90100
O10         O  0.83009423  0.24470046  0.49657569    -0.72900
O11         O  0.87110454  0.26868152  0.45242657    -0.72800
O12         O  0.85468847  0.26457752  0.53418826    -0.78400
O13         O  0.89171139  0.25970140  0.49998012    -0.76600
O14         O  0.86425336  0.23521487  0.48273764    -1.12800
O15         O  0.89905746  0.22710567  0.47006659    -0.72000
C16         C  0.89676476  0.21309624  0.44651516     0.98800
C17         C  0.82285456  0.23002223  0.48574192     0.95200
Al18       Al  0.85139740  0.25533438  0.47471955     1.55600
O19         O  0.85655973  0.20112690  0.51084892    -0.76600
C20         C  0.88630418  0.27069614  0.47042841     0.99300
C21         C  0.85064106  0.23938086  0.38453633     0.94200
O22         O  0.85749267  0.22476093  0.39743340    -0.81900
O23         O  0.63069773  0.19911950  0.58873767    -0.81400
C24         C  0.65101216  0.25579201  0.48064744     0.98000
O25         O  0.63968772  0.24314807  0.48149634    -0.70500
O26         O  0.62783562  0.21113375  0.49982767    -0.74100
Al27       Al  0.62800900  0.23325939  0.53186262     1.49000
C28         C  0.63978555  0.19980737  0.48987969     0.93300
O29         O  0.68070473  0.21046332  0.56628832    -0.80300
O30         O  0.67051668  0.23954970  0.63000445    -0.73800
Al31       Al  0.65498926  0.20727195  0.57573567     1.90100
O32         O  0.68285795  0.23825876  0.54223896    -0.72900
O33         O  0.64491013  0.26097705  0.60425687    -0.72800
O34         O  0.65856229  0.26109192  0.51652692    -0.78400
O35         O  0.62316247  0.25639935  0.55655822    -0.76600
O36         O  0.64873803  0.22961733  0.56000328    -1.12800
O37         O  0.61428179  0.22331267  0.57980729    -0.72000
C38         C  0.61580555  0.20729896  0.59359936     0.98800
C39         C  0.68968554  0.22294730  0.54747906     0.95200
Al40       Al  0.66303080  0.24833207  0.57228302     1.55600
O41         O  0.65371069  0.19846251  0.51438310    -0.76600
C42         C  0.62968332  0.26512482  0.58918164     0.99300
C43         C  0.66438851  0.22716325  0.65501739     0.94200
O44         O  0.65640705  0.21372528  0.63800312    -0.81900
O45         O  0.87093870  0.27955834  0.05578590    -0.81400
C46         C  0.84929224  0.30149226  0.88640805     0.98000
O47         O  0.85162150  0.28699817  0.90776067    -0.70500
O48         O  0.86755180  0.26595813  0.96585605    -0.74100
Al49       Al  0.84814657  0.28296682  0.97004160     1.49000
C50         C  0.88447483  0.26778579  0.96521881     0.93300
O51         O  0.89565150  0.31678506  0.99275937    -0.80300
O52         O  0.86379808  0.33605102  0.01885227    -0.73800
Al53       Al  0.88101599  0.29852361  0.02016772     1.90100
O54         O  0.87914821  0.32717641  0.93713252    -0.72900
O55         O  0.83294321  0.32317151  0.99133536    -0.72800
O56         O  0.84779912  0.31637335  0.90677882    -0.78400
O57         O  0.82578090  0.29573628  0.97062150    -0.76600
O58         O  0.86182988  0.30177209  0.98503190    -1.12800
O59         O  0.84322607  0.27682215  0.03140441    -0.72000
C60         C  0.85507773  0.27381751  0.06093694     0.98800
C61         C  0.89412414  0.32577261  0.95677470     0.95200
Al62       Al  0.85631214  0.32382846  0.96522887     1.55600
O63         O  0.89180186  0.28199162  0.97968648    -0.76600
C64         C  0.82133370  0.31096684  0.98608253     0.99300
C65         C  0.86840800  0.33092337  0.05794082     0.94200
O66         O  0.87234230  0.31464740  0.06469722    -0.81900
O67         O  0.63924651  0.28440281  0.97706895    -0.81400
C68         C  0.66170810  0.29340827  0.15709779     0.98000
O69         O  0.66779341  0.28167242  0.13008675    -0.70500
O70         O  0.64397788  0.26121998  0.09117213    -0.74100
Al71       Al  0.66249774  0.27624187  0.06802125     1.49000
C72         C  0.62826208  0.25873378  0.07694548     0.93300
O73         O  0.61316898  0.30162511  0.07822774    -0.80300
O74         O  0.65382391  0.32889185  0.02654946    -0.73800
Al75       Al  0.62756677  0.29320901  0.02930931     1.90100
O76         O  0.62985464  0.32468930  0.09631475    -0.72900
O77         O  0.67952263  0.31451310  0.07749011    -0.72800
O78         O  0.65422745  0.30752370  0.14277537    -0.78400
O79         O  0.68349127  0.28808018  0.04668463    -0.76600
O80         O  0.64810629  0.29539573  0.06006341    -1.12800
O81         O  0.65977906  0.26704633  0.00727663    -0.72000
C82         C  0.65119856  0.27247292  0.97287696     0.98800
C83         C  0.61491521  0.31663706  0.09777913     0.95200
Al84       Al  0.65395355  0.31691242  0.08371160     1.55600
O85         O  0.62160537  0.26954415  0.04881589    -0.76600
C86         C  0.68962354  0.30316980  0.05853035     0.99300
C87         C  0.64043370  0.32897301  0.00029331     0.94200
O88         O  0.62875376  0.31656653  0.00245060    -0.81900
O89         O  0.52887641  0.40139132  0.80657822    -0.81400
C90         C  0.54139709  0.42352644  0.62567374     0.98000
O91         O  0.52871111  0.42823818  0.65143793    -0.70500
O92         O  0.50793131  0.40301469  0.68561432    -0.74100
Al93       Al  0.52157322  0.42220152  0.71159127     1.49000
C94         C  0.50431485  0.38812145  0.70406185     0.93300
O95         O  0.54596521  0.37302546  0.71099724    -0.80300
O96         O  0.57352944  0.41337251  0.75978758    -0.73800
Al97       Al  0.53751323  0.38832217  0.75689252     1.90100
O98         O  0.56928829  0.38927598  0.68950172    -0.72900
O99         O  0.56020014  0.43944196  0.71040590    -0.72800
O100        O  0.55475397  0.41519140  0.64137403    -0.78400
O101        O  0.53255466  0.44313865  0.73513630    -0.76600
O102        O  0.54056211  0.40819631  0.72340646    -1.12800
O103        O  0.51039132  0.41930346  0.77017789    -0.72000
C104        C  0.51592218  0.41230676  0.80661018     0.98800
C105        C  0.56097002  0.37437103  0.69135595     0.95200
Al106      Al  0.56248759  0.41384107  0.70203816     1.55600
O107        O  0.51369491  0.38267413  0.73680419    -0.92600
C108        C  0.54810984  0.44926224  0.72760389     0.99300
C109        C  0.57296338  0.40042446  0.78719981     0.94200
O110        O  0.56047245  0.38893761  0.78524509    -0.81900
O111        O  0.52973573  0.63069321  0.72311243    -0.81400
C112        C  0.53899260  0.60826828  0.90356271     0.98000
O113        O  0.52766471  0.60182889  0.87633990    -0.70500
O114        O  0.50811904  0.62753433  0.84145826    -0.74100
Al115      Al  0.52168296  0.60845988  0.81587972     1.49000
C116        C  0.50569889  0.64298608  0.82480921     0.93300
O117        O  0.54876427  0.65702658  0.82111455    -0.80300
O118        O  0.57445476  0.61549292  0.77249101    -0.73800
Al119      Al  0.53944501  0.64248296  0.77409387     1.90100
O120        O  0.57094638  0.63964467  0.84162164    -0.72900
O121        O  0.55911248  0.59021562  0.82288506    -0.72800
O122        O  0.55309917  0.61587723  0.88925780    -0.78400
O123        O  0.53255097  0.58756905  0.79139105    -0.76600
O124        O  0.54120499  0.62219154  0.80622301    -1.12800
O125        O  0.51122505  0.61226676  0.75801843    -0.72000
C126        C  0.51625312  0.62037364  0.72269686     0.98800
C127        C  0.56354071  0.65490245  0.84126538     0.95200
Al128      Al  0.56249293  0.61575611  0.82964437     1.55600
O129        O  0.51616306  0.64911109  0.79499648    -0.76600
C130        C  0.54749896  0.58089069  0.80233923     0.99300
C131        C  0.57443929  0.62841169  0.74461556     0.94200
O132        O  0.56236537  0.64033834  0.74595534    -0.81900
O133        O  0.44866751  0.39443216  0.17743841    -0.81400
C134        C  0.50089613  0.41513652  0.30893011     0.98000
O135        O  0.49417114  0.39973487  0.30245060    -0.70500
O136        O  0.45886260  0.39953670  0.30521581    -0.74100
Al137      Al  0.47592709  0.39084909  0.26306601     1.49000
C138        C  0.44316193  0.40507879  0.29693844     0.93300
O139        O  0.45397837  0.44072504  0.23010042    -0.80300
O140        O  0.49155455  0.42192965  0.15477869    -0.73800
Al141      Al  0.45299617  0.41719291  0.20529521     1.90100
O142        O  0.48256568  0.44670071  0.21978709    -0.72900
O143        O  0.51018268  0.40352949  0.21292479    -0.72800
O144        O  0.49929444  0.42727645  0.27956288    -0.78400
O145        O  0.49318683  0.37973868  0.22472477    -0.76600
O146        O  0.47431371  0.41061085  0.22855253    -1.12800
O147        O  0.45807262  0.37718609  0.23241884    -0.72000
C148        C  0.44923345  0.37925472  0.19653399     0.98800
C149        C  0.46683444  0.45178151  0.22956948     0.95200
Al150      Al  0.49411330  0.42372844  0.21762186     1.55600
O151        O  0.43914412  0.41060831  0.25773996    -0.76600
C152        C  0.50774653  0.38667373  0.21110906     0.99300
C153        C  0.47798452  0.42429443  0.13008745     0.94200
O154        O  0.46248379  0.42503100  0.14772214    -0.81900
O155        O  0.44534980  0.64282694  0.34788230    -0.81400
C156        C  0.49842015  0.62320180  0.22578761     0.98000
O157        O  0.48570265  0.63434793  0.22893210    -0.70500
O158        O  0.45385417  0.64468224  0.25380901    -0.74100
Al159      Al  0.47699156  0.64592313  0.28119665     1.49000
C160        C  0.44215831  0.63237643  0.24976137     0.93300
O161        O  0.45653285  0.59328656  0.32574835    -0.80300
O162        O  0.48756079  0.60341977  0.37875754    -0.73800
Al163      Al  0.45347740  0.61877866  0.33414685     1.90100
O164        O  0.48262841  0.59092612  0.29210152    -0.72900
O165        O  0.50761484  0.62951045  0.34729082    -0.72800
O166        O  0.50449115  0.61558181  0.26072326    -0.78400
O167        O  0.50069446  0.65182439  0.30198045    -0.76600
O168        O  0.47483264  0.62526732  0.31145119    -1.12800
O169        O  0.46826952  0.65995161  0.32982261    -0.72000
C170        C  0.45321016  0.65794120  0.34893587     0.98800
C171        C  0.46782609  0.58401070  0.30395086     0.95200
Al172      Al  0.49395417  0.61108555  0.31904468     1.55600
O173        O  0.44212276  0.61910852  0.27647617    -0.76600
C174        C  0.51027670  0.64527954  0.33302321     0.99300
C175        C  0.47626130  0.60926045  0.40705927     0.94200
O176        O  0.46260883  0.61785670  0.39365800    -0.81900
O177        O  0.38006103  0.70606167  0.92122161    -0.81400
C178        C  0.35847441  0.75488021  0.05873714     0.98000
O179        O  0.37406882  0.74852066  0.05201076    -0.70500
O180        O  0.37483087  0.71338710  0.04993562    -0.74100
Al181      Al  0.38379524  0.73128401  0.01061252     1.49000
C182        C  0.36943207  0.69782188  0.03973020     0.93300
O183        O  0.33416133  0.71073947  0.97545617    -0.80300
O184        O  0.35615732  0.74916585  0.90277100    -0.73800
Al185      Al  0.35759734  0.70969266  0.95002618     1.90100
O186        O  0.32904496  0.73909387  0.96033732    -0.72900
O187        O  0.37190110  0.76699672  0.96843422    -0.72800
O188        O  0.34674350  0.75383915  0.02804617    -0.78400
O189        O  0.39535293  0.74941288  0.97540456    -0.76600
O190        O  0.36447440  0.73044895  0.97548465    -1.12800
O191        O  0.39752944  0.71423237  0.97699956    -0.72000
C192        C  0.39537393  0.70663897  0.93920871     0.98800
C193        C  0.32330326  0.72362806  0.97103950     0.95200
Al194      Al  0.35197078  0.75054588  0.96557265     1.55600
O195        O  0.36409309  0.69449675  0.00005389    -0.76600
C196        C  0.38871916  0.76470671  0.96762388     0.99300
C197        C  0.35276419  0.73583010  0.87765464     0.94200
O198        O  0.34998716  0.72039354  0.89438694    -0.81900
O199        O  0.13512484  0.71827864  0.09665075    -0.81400
C200        C  0.15669732  0.76741274  0.96011705     0.98000
O201        O  0.14088912  0.76152054  0.96655103    -0.70500
O202        O  0.13983108  0.72626255  0.96654468    -0.74100
Al203      Al  0.13134718  0.74376605  0.00743288     1.49000
C204        C  0.14398503  0.71032094  0.97649189     0.93300
O205        O  0.18029713  0.72172636  0.03736589    -0.80300
O206        O  0.16097809  0.76014763  0.11408982    -0.73800
Al207      Al  0.15739288  0.72125747  0.06567732     1.90100
O208        O  0.18674872  0.74978002  0.05320133    -0.72900
O209        O  0.14428358  0.77868139  0.05215471    -0.72800
O210        O  0.16852751  0.76582388  0.99007848    -0.78400
O211        O  0.12052648  0.76148656  0.04439712    -0.76600
O212        O  0.15089740  0.74231149  0.04158225    -1.12800
O213        O  0.11760455  0.72630221  0.04077538    -0.72000
C214        C  0.11979387  0.71849202  0.07842231     0.98800
C215        C  0.19173556  0.73420484  0.04151650     0.95200
Al216      Al  0.16404811  0.76195452  0.05162795     1.55600
O217        O  0.14933668  0.70663664  0.01601904    -0.76600
C218        C  0.12739277  0.77653905  0.05378425     0.99300
C219        C  0.16540293  0.74690346  0.13802608     0.94200
O220        O  0.16679369  0.73133982  0.12078481    -0.81900
O221        O  0.37078084  0.77965998  0.54873845    -0.81400
C222        C  0.34626253  0.79617146  0.37879165     0.98000
O223        O  0.34962727  0.78283590  0.40350165    -0.70500
O224        O  0.36659829  0.76396723  0.46386649    -0.74100
Al225      Al  0.34683733  0.78098068  0.46598729     1.49000
C226        C  0.38346949  0.76625808  0.45970519     0.93300
O227        O  0.39395629  0.81593811  0.47993733    -0.80300
O228        O  0.36259450  0.83547513  0.50393251    -0.73800
Al229      Al  0.37996965  0.79810334  0.50995413     1.90100
O230        O  0.37730751  0.82398196  0.42245442    -0.72900
O231        O  0.33128131  0.82176076  0.47881449    -0.72800
O232        O  0.34563539  0.81192485  0.39542410    -0.78400
O233        O  0.32430736  0.79360463  0.46515818    -0.76600
O234        O  0.36039548  0.80028039  0.47599292    -1.12800
O235        O  0.34255945  0.77703887  0.52823150    -0.72000
C236        C  0.35486692  0.77461069  0.55669226     0.98800
C237        C  0.39240076  0.82326050  0.44176205     0.95200
Al238      Al  0.35463465  0.82156660  0.45213774     1.55600
O239        O  0.39043955  0.78114280  0.47029243    -0.76600
C240        C  0.31965071  0.80941700  0.47606687     0.99300
C241        C  0.36767698  0.83113671  0.54338049     0.94200
O242        O  0.37142137  0.81491691  0.55223453    -0.81900
O243        O  0.13707692  0.79358875  0.45691153    -0.81400
C244        C  0.15933246  0.80018310  0.63809827     0.98000
O245        O  0.16458580  0.78847531  0.61027531    -0.70500
O246        O  0.13960197  0.76966246  0.57135625    -0.74100
Al247      Al  0.15872874  0.78376077  0.54898771     1.49000
C248        C  0.12417180  0.76742328  0.55495170     0.93300
O249        O  0.11010077  0.81085102  0.55596755    -0.80300
O250        O  0.15193612  0.83719354  0.51057976    -0.73800
Al251      Al  0.12490944  0.80223613  0.50848504     1.90100
O252        O  0.12773233  0.83245608  0.57992112    -0.72900
O253        O  0.17721176  0.82142437  0.55864379    -0.72800
O254        O  0.15218489  0.81467526  0.62522283    -0.78400
O255        O  0.17994783  0.79482778  0.52735777    -0.76600
O256        O  0.14513922  0.80349248  0.54128711    -1.12800
O257        O  0.15567403  0.77476917  0.48976266    -0.72000
C258        C  0.14809384  0.78074504  0.45485382     0.98800
C259        C  0.11233979  0.82527068  0.57778851     0.95200
Al260      Al  0.15171722  0.82452453  0.56643809     1.55600
O261        O  0.11800018  0.77843580  0.52658070    -0.76600
C262        C  0.18663921  0.80970500  0.53880609     0.99300
C263        C  0.13916842  0.83766208  0.48266599     0.94200
O264        O  0.12712901  0.82564272  0.48265952    -0.81900
O265        O  0.05985434  0.39798429  0.86145500    -0.81400
C266        C  0.01024761  0.41961314  0.72672992     0.98000
O267        O  0.01588331  0.40375743  0.73373919    -0.70500
O268        O  0.05132106  0.40286819  0.73262484    -0.74100
Al269      Al  0.03376503  0.39434902  0.77407159     1.49000
C270        C  0.06706089  0.40808127  0.74208438     0.93300
O271        O  0.05535153  0.44401849  0.80695514    -0.80300
O272        O  0.01701984  0.42353912  0.88151939    -0.73800
Al273      Al  0.05616195  0.42058875  0.83278835     1.90100
O274        O  0.02711577  0.44968483  0.82160704    -0.72900
O275        O  0.99894974  0.40712206  0.81870602    -0.72800
O276        O  0.01192617  0.43152447  0.75668896    -0.78400
O277        O  0.01620092  0.38344266  0.81233804    -0.76600
O278        O  0.03522987  0.41395247  0.80847678    -1.12800
O279        O  0.05132369  0.38074274  0.80589483    -0.72000
C280        C  0.05973251  0.38278479  0.84254602     0.98800
C281        C  0.04260174  0.45510548  0.81081346     0.95200
Al282      Al  0.01546418  0.42688953  0.81875702     1.55600
O283        O  0.07065993  0.41368121  0.78151545    -0.76600
C284        C  0.00139393  0.39039963  0.82369156     0.99300
C285        C  0.03022972  0.42705076  0.90650147     0.94200
O286        O  0.04586716  0.42866674  0.88948640    -0.81900
O287        O  0.06252980  0.64173698  0.66160465    -0.81400
C288        C  0.01505263  0.62178278  0.80218658     0.98000
O289        O  0.01987025  0.63773405  0.79272531    -0.70500
O290        O  0.05485458  0.63932038  0.79131676    -0.74100
Al291      Al  0.03709371  0.64686084  0.75020129     1.49000
C292        C  0.07077032  0.63472873  0.78184214     0.93300
O293        O  0.05898788  0.59709453  0.72366563    -0.80300
O294        O  0.02009880  0.61610433  0.64757167    -0.73800
Al295      Al  0.05945750  0.61985177  0.69407894     1.90100
O296        O  0.03101180  0.59057269  0.70824584    -0.72900
O297        O  0.00183833  0.63283789  0.71084607    -0.72800
O298        O  0.01634159  0.60941392  0.77323015    -0.78400
O299        O  0.01908565  0.65679538  0.71208990    -0.76600
O300        O  0.03858764  0.62671547  0.71826120    -1.12800
O301        O  0.05414467  0.66021515  0.71535814    -0.72000
C302        C  0.06189680  0.65739249  0.67801920     0.98800
C303        C  0.04647229  0.58566086  0.72092431     0.95200
Al304      Al  0.01895156  0.61331168  0.71055224     1.55600
O305        O  0.07430183  0.62836768  0.74317591    -0.76600
C306        C  0.00400935  0.64955940  0.70480339     0.99300
C307        C  0.03330730  0.61214639  0.62275170     0.94200
O308        O  0.04886688  0.61025567  0.63975807    -0.81900
O309        O  0.98682115  0.40223447  0.23253776    -0.81400
C310        C  0.97280943  0.42907376  0.40786980     0.98000
O311        O  0.98585003  0.43314910  0.38236487    -0.70500
O312        O  0.00626959  0.40689889  0.35363884    -0.74100
Al313      Al  0.99353675  0.42555686  0.32376724     1.49000
C314        C  0.00927831  0.39128981  0.33885046     0.93300
O315        O  0.96662085  0.37734917  0.33171483    -0.80300
O316        O  0.94227150  0.41796597  0.27255488    -0.73800
Al317      Al  0.97668342  0.39098771  0.28375297     1.90100
O318        O  0.94357598  0.39499671  0.34635044    -0.72900
O319        O  0.95614834  0.44456908  0.32095994    -0.72800
O320        O  0.95927900  0.42093860  0.39233061    -0.78400
O321        O  0.98376298  0.44610137  0.29564987    -0.76600
O322        O  0.97417190  0.41187797  0.31307683    -1.12800
O323        O  0.00517620  0.42095208  0.26683203    -0.72000
C324        C  0.99986301  0.41309169  0.23137391     0.98800
C325        C  0.95127960  0.37978570  0.34894388     0.95200
Al326      Al  0.95226156  0.41902578  0.33142664     1.55600
O327        O  0.99983649  0.38480177  0.30748911    -0.76600
C328        C  0.96880920  0.45350430  0.30293755     0.99300
C329        C  0.94244964  0.40416409  0.24779767     0.94200
O330        O  0.95420639  0.39212191  0.25315524    -0.81900
O331        O  0.99020008  0.63631228  0.30144999    -0.81400
C332        C  0.97707574  0.61211769  0.12465878     0.98000
O333        O  0.98903447  0.60655047  0.15121052    -0.70500
O334        O  0.00988296  0.63244421  0.18031704    -0.74100
Al335      Al  0.99656337  0.61371134  0.20949985     1.49000
C336        C  0.01291500  0.64796841  0.19601755     0.93300
O337        O  0.97072690  0.66254287  0.20402946    -0.80300
O338        O  0.94509449  0.62178257  0.25943961    -0.73800
Al339      Al  0.98029331  0.64818009  0.25110351     1.90100
O340        O  0.94748040  0.64549901  0.18753399    -0.72900
O341        O  0.95874808  0.59565815  0.20896889    -0.72800
O342        O  0.96346175  0.62031122  0.13977390    -0.78400
O343        O  0.98590720  0.59327814  0.23733865    -0.76600
O344        O  0.97748797  0.62772084  0.22046146    -1.12800
O345        O  0.00829623  0.61783845  0.26550243    -0.72000
C346        C  0.00334457  0.62562307  0.30120490     0.98800
C347        C  0.95555801  0.66052033  0.18584583     0.95200
Al348      Al  0.95559526  0.62130936  0.20059615     1.55600
O349        O  0.00346641  0.65410785  0.22781607    -0.76600
C350        C  0.97073130  0.58651959  0.22876895     0.99300
C351        C  0.94587697  0.63497970  0.28627695     0.94200
O352        O  0.95780851  0.64693834  0.28159256    -0.81900
O353        O  0.55578144  0.13743639  0.16776474    -0.81400
C354        C  0.51488314  0.11222422  0.31843476     0.98000
O355        O  0.52096490  0.12791454  0.31182485    -0.70500
O356        O  0.55589953  0.13092659  0.29860446    -0.74100
Al357      Al  0.53548095  0.13882004  0.26572825     1.49000
C358        C  0.57121749  0.12761598  0.28200119     0.93300
O359        O  0.55780822  0.09147195  0.22201455    -0.80300
O360        O  0.51491000  0.10907419  0.16121185    -0.73800
Al361      Al  0.55558717  0.11471129  0.19687829     1.90100
O362        O  0.52944155  0.08358305  0.21809088    -0.72900
O363        O  0.49890976  0.12469816  0.22961738    -0.72800
O364        O  0.51494023  0.10067468  0.28718829    -0.78400
O365        O  0.51503414  0.14919508  0.23772692    -0.76600
O366        O  0.53575269  0.11973358  0.22915460    -1.12800
O367        O  0.54995540  0.15395427  0.22734659    -0.72000
C368        C  0.55578225  0.15252707  0.18732671     0.98800
C369        C  0.54585831  0.07944176  0.22298652     0.95200
Al370      Al  0.51627782  0.10567331  0.22433844     1.55600
O371        O  0.57253868  0.12268422  0.24136262    -0.76600
C372        C  0.50008147  0.14170127  0.23052389     0.99300
C373        C  0.52713371  0.10702047  0.13216233     0.94200
O374        O  0.54334076  0.10578758  0.14455421    -0.81900
O375        O  0.56063693  0.89485277  0.37725814    -0.81400
C376        C  0.51568948  0.91385553  0.23020831     0.98000
O377        O  0.52094852  0.89824758  0.24065090    -0.70500
O378        O  0.55570879  0.89581747  0.24725244    -0.74100
Al379      Al  0.53666355  0.88917189  0.28600158     1.49000
C380        C  0.57113355  0.90130690  0.25837085     0.93300
O381        O  0.55907092  0.93894421  0.31190569    -0.80300
O382        O  0.51826488  0.92168052  0.38452807    -0.73800
Al383      Al  0.55845192  0.91651302  0.34317428     1.90100
O384        O  0.53084564  0.94594074  0.32265171    -0.72900
O385        O  0.50119194  0.90447453  0.32127978    -0.72800
O386        O  0.51668033  0.92652741  0.25849605    -0.78400
O387        O  0.51723997  0.87994535  0.32100060    -0.76600
O388        O  0.53790830  0.90965586  0.31692637    -1.12800
O389        O  0.55226304  0.87584213  0.32450586    -0.72000
C390        C  0.55970320  0.87900031  0.36192814     0.98800
C391        C  0.54666004  0.95050664  0.31232056     0.95200
Al392      Al  0.51841331  0.92351958  0.32145574     1.55600
O393        O  0.57405433  0.90758610  0.29724008    -0.76600
C394        C  0.50227082  0.88767434  0.32632354     0.99300
C395        C  0.53120478  0.92533905  0.41028232     0.94200
O396        O  0.54709175  0.92678815  0.39512865    -0.81900
O397        O  0.48241766  0.12974544  0.80560815    -0.81400
C398        C  0.46592689  0.10513720  0.63090090     0.98000
O399        O  0.47800997  0.09873253  0.65634790    -0.70500
O400        O  0.50098201  0.12277408  0.68462959    -0.74100
Al401      Al  0.48648309  0.10538737  0.71497397     1.49000
C402        C  0.50537363  0.13812545  0.69887832     0.93300
O403        O  0.46376776  0.15544081  0.70652762    -0.80300
O404        O  0.43681209  0.11683735  0.76895971    -0.73800
Al405      Al  0.47291255  0.14139250  0.75467929     1.90100
O406        O  0.43903443  0.13999749  0.69612684    -0.72900
O407        O  0.44761648  0.08979488  0.71754368    -0.72800
O408        O  0.45282865  0.11371621  0.64740900    -0.78400
O409        O  0.47476379  0.08592443  0.74351187    -0.76600
O410        O  0.46852432  0.12070971  0.72621935    -1.12800
O411        O  0.49855141  0.10891249  0.77167683    -0.72000
C412        C  0.49419636  0.11759551  0.80675309     0.98800
C413        C  0.44789625  0.15450987  0.69186536     0.95200
Al414      Al  0.44601078  0.11547621  0.70891576     1.55600
O415        O  0.49632285  0.14549831  0.72985949    -0.76600
C416        C  0.45923144  0.07985027  0.73602295     0.99300
C417        C  0.43858155  0.13031815  0.79462517     0.94200
O418        O  0.45056626  0.14203090  0.78692055    -0.81900
O419        O  0.48310545  0.89698473  0.73600206    -0.81400
C420        C  0.47725238  0.92577769  0.91066899     0.98000
O421        O  0.48796103  0.93125501  0.88043958    -0.70500
O422        O  0.50813977  0.90493858  0.85064576    -0.74100
Al423      Al  0.49320665  0.92220398  0.82169517     1.49000
C424        C  0.51179262  0.88963238  0.83462004     0.93300
O425        O  0.47039530  0.87309862  0.84440158    -0.80300
O426        O  0.44033360  0.91073598  0.78811196    -0.73800
Al427      Al  0.47665442  0.88611753  0.79149258     1.90100
O428        O  0.44700009  0.88955866  0.86292827    -0.72900
O429        O  0.45499637  0.93890299  0.82836285    -0.72800
O430        O  0.46354221  0.91671618  0.90047040    -0.78400
O431        O  0.48080794  0.94117051  0.79324199    -0.76600
O432        O  0.47434424  0.90733785  0.81873422    -1.12800
O433        O  0.50252239  0.91635284  0.76331214    -0.72000
C434        C  0.49596103  0.90785610  0.73016857     0.98800
C435        C  0.45575497  0.87492786  0.86554886     0.95200
Al436      Al  0.45324834  0.91355332  0.84311858     1.55600
O437        O  0.50122594  0.88219688  0.80711578    -0.76600
C438        C  0.46575603  0.94776332  0.80346965     0.99300
C439        C  0.44018600  0.89642925  0.76515540     0.94200
O440        O  0.45266443  0.88500445  0.76911194    -0.81900
O441        O  0.88109852  0.82712405  0.08938379    -0.81400
C442        C  0.85973364  0.77434421  0.96339779     0.98000
O443        O  0.87556471  0.78002251  0.96892173    -0.70500
O444        O  0.87522957  0.81493512  0.96224350    -0.74100
Al445      Al  0.88467632  0.79892438  0.00579378     1.49000
C446        C  0.87024934  0.83093541  0.96934926     0.93300
O447        O  0.83516284  0.82069724  0.03636375    -0.80300
O448        O  0.85560969  0.78472150  0.11731019    -0.73800
Al449      Al  0.85848915  0.82244731  0.06172326     1.90100
O450        O  0.82952005  0.79266215  0.05526563    -0.72900
O451        O  0.87284022  0.76506867  0.05743050    -0.72800
O452        O  0.84802739  0.77576506  0.99390291    -0.78400
O453        O  0.89624665  0.78240652  0.04538769    -0.76600
O454        O  0.86527950  0.80087882  0.04102197    -1.12800
O455        O  0.89827296  0.81771027  0.03394301    -0.72000
C456        C  0.89609496  0.82694354  0.06927041     0.98800
C457        C  0.82423316  0.80785700  0.04151183     0.95200
Al458      Al  0.85259001  0.78119779  0.05492090     1.55600
O459        O  0.86525920  0.83561259  0.00844315    -0.76600
C460        C  0.88971234  0.76753279  0.05819051     0.99300
C461        C  0.85167565  0.79874770  0.13929823     0.94200
O462        O  0.85026790  0.81379543  0.11953615    -0.81900
O463        O  0.63755290  0.82406985  0.92629489    -0.81400
C464        C  0.65165034  0.77165636  0.06212729     0.98000
O465        O  0.63659575  0.77661507  0.04743915    -0.70500
O466        O  0.63570337  0.81170408  0.05374798    -0.74100
Al467      Al  0.62990950  0.79550858  0.00725960     1.49000
C468        C  0.64041855  0.82792315  0.04852226     0.93300
O469        O  0.68023265  0.82000302  0.99469591    -0.80300
O470        O  0.66719094  0.78213784  0.91244344    -0.73800
Al471      Al  0.65840359  0.82021620  0.96196693     1.90100
O472        O  0.68780243  0.79177665  0.98471794    -0.72900
O473        O  0.64660725  0.76231782  0.96421189    -0.72800
O474        O  0.66560406  0.77446350  0.03863227    -0.78400
O475        O  0.62206513  0.77880912  0.96308502    -0.76600
O476        O  0.65137878  0.79841066  0.98127099    -1.12800
O477        O  0.61772247  0.81372310  0.97439350    -0.72000
C478        C  0.62159914  0.82319262  0.94044536     0.98800
C479        C  0.69174459  0.80763367  0.99624035     0.95200
Al480      Al  0.66566927  0.77930638  0.97541729     1.55600
O481        O  0.64809817  0.83298608  0.01241003    -0.76600
C482        C  0.63011708  0.76420361  0.95476402     0.99300
C483        C  0.67026499  0.79608614  0.88916520     0.94200
O484        O  0.66973309  0.81149607  0.90745459    -0.81900
O485        O  0.87117969  0.74979141  0.46169718    -0.81400
C486        C  0.85139645  0.73812775  0.64242959     0.98000
O487        O  0.84559032  0.75078554  0.61781336    -0.70500
O488        O  0.86987662  0.77175208  0.58038579    -0.74100
Al489      Al  0.85074623  0.75774362  0.55660591     1.49000
C490        C  0.88427467  0.77558000  0.55992740     0.93300
O491        O  0.89954774  0.73280548  0.55781347    -0.80300
O492        O  0.85808069  0.70611566  0.50707910    -0.73800
Al493      Al  0.88432849  0.74125998  0.51106541     1.90100
O494        O  0.88331824  0.70904290  0.57532169    -0.72900
O495        O  0.83298982  0.71957207  0.56081377    -0.72800
O496        O  0.85896664  0.72450727  0.62577549    -0.78400
O497        O  0.82973584  0.74691522  0.53471616    -0.76600
O498        O  0.86453785  0.73860090  0.54449380    -1.12800
O499        O  0.85308101  0.76837258  0.49729732    -0.72000
C500        C  0.86002333  0.76257928  0.46099803     0.98800
C501        C  0.89817028  0.71752092  0.57624830     0.95200
Al502      Al  0.85875830  0.71670980  0.56551276     1.55600
O503        O  0.89004146  0.76514161  0.52978738    -0.76600
C504        C  0.82314805  0.73184074  0.54446501     0.99300
C505        C  0.87122934  0.70627974  0.48004956     0.94200
O506        O  0.88337256  0.71812664  0.48314155    -0.81900
O507        O  0.64447234  0.74806796  0.56794593    -0.81400
C508        C  0.66246446  0.73443261  0.38593150     0.98000
O509        O  0.66926503  0.74655137  0.41081002    -0.70500
O510        O  0.64628239  0.76853688  0.44905259    -0.74100
Al511      Al  0.66513024  0.75386521  0.47206561     1.49000
C512        C  0.63124111  0.77189512  0.46684322     0.93300
O513        O  0.61507286  0.72901593  0.47508220    -0.80300
O514        O  0.65730547  0.70303183  0.52295254    -0.73800
Al515      Al  0.63112247  0.73847285  0.51963897     1.90100
O516        O  0.63138435  0.70554141  0.45766229    -0.72900
O517        O  0.68133117  0.71534349  0.46475362    -0.72800
O518        O  0.65452092  0.72111597  0.40342390    -0.78400
O519        O  0.68604567  0.74212040  0.49317956    -0.76600
O520        O  0.65067331  0.73528888  0.48526403    -1.12800
O521        O  0.66390601  0.76479228  0.53082232    -0.72000
C522        C  0.65656368  0.76000344  0.56748653     0.98800
C523        C  0.61636680  0.71337425  0.45860528     0.95200
Al524      Al  0.65571995  0.71324395  0.46400382     1.55600
O525        O  0.62516401  0.76191408  0.49784786    -0.76600
C526        C  0.69170341  0.72679090  0.48211929     0.99300
C527        C  0.64495303  0.70386703  0.55233331     0.94200
O528        O  0.63288366  0.71580884  0.54986100    -0.81900
O529        O  0.37934511  0.32037893  0.62143513    -0.81400
C530        C  0.35291837  0.27753856  0.47718027     0.98000
O531        O  0.36927930  0.28083345  0.48538224    -0.70500
O532        O  0.37485904  0.31520487  0.49145073    -0.74100
Al533      Al  0.38061579  0.29596467  0.52961853     1.49000
C534        C  0.37227230  0.33134872  0.50259365     0.93300
O535        O  0.33431640  0.32319533  0.56173866    -0.80300
O536        O  0.34796352  0.28097026  0.63347659    -0.73800
Al537      Al  0.35700579  0.32037595  0.59025504     1.90100
O538        O  0.32433828  0.29565415  0.57252750    -0.72900
O539        O  0.36306281  0.26188485  0.56981887    -0.72800
O540        O  0.34117368  0.27909679  0.50767609    -0.78400
O541        O  0.38878095  0.27620847  0.56392751    -0.76600
O542        O  0.36108440  0.29911375  0.56357970    -1.12800
O543        O  0.39621947  0.31065582  0.56564540    -0.72000
C544        C  0.39464395  0.31838467  0.60345128     0.98800
C545        C  0.32167654  0.31186898  0.56153245     0.95200
Al546      Al  0.34545583  0.28095993  0.57039245     1.55600
O547        O  0.36689475  0.33505921  0.54209037    -0.76600
C548        C  0.38005411  0.26206252  0.57239391     0.99300
C549        C  0.34607162  0.29417511  0.65968968     0.94200
O550        O  0.34656977  0.31019097  0.64462482    -0.81900
O551        O  0.13345775  0.32487756  0.42921156    -0.81400
C552        C  0.15978825  0.27977073  0.56785894     0.98000
O553        O  0.14352083  0.28428866  0.56250895    -0.70500
O554        O  0.14146844  0.31932339  0.55930018    -0.74100
Al555      Al  0.13256594  0.30090408  0.52153141     1.49000
C556        C  0.14375995  0.33539895  0.54651641     0.93300
O557        O  0.18011496  0.32409897  0.48260726    -0.80300
O558        O  0.16022348  0.28379230  0.41254377    -0.73800
Al559      Al  0.15653411  0.32331847  0.45731285     1.90100
O560        O  0.18709074  0.29596671  0.46788206    -0.72900
O561        O  0.14579575  0.26579190  0.47852570    -0.72800
O562        O  0.17089335  0.28079016  0.53584109    -0.78400
O563        O  0.12156098  0.28233215  0.48729451    -0.76600
O564        O  0.15129721  0.30249243  0.48441970    -1.12800
O565        O  0.11761058  0.31741866  0.48920422    -0.72000
C566        C  0.11870247  0.32464534  0.45061241     0.98800
C567        C  0.19171994  0.31175526  0.47888562     0.95200
Al568      Al  0.16488916  0.28316602  0.47447993     1.55600
O569        O  0.14860627  0.33851453  0.50627828    -0.76600
C570        C  0.12892554  0.26766894  0.47652718     0.99300
C571        C  0.16339211  0.29681600  0.38657769     0.94200
O572        O  0.16516668  0.31260243  0.40228575    -0.81900
O573        O  0.37246828  0.24241073  0.98573258    -0.81400
C574        C  0.34639778  0.23444906  0.16396879     0.98000
O575        O  0.34097340  0.24590255  0.13528132    -0.70500
O576        O  0.36719502  0.26587910  0.10278559    -0.74100
Al577      Al  0.34895270  0.25174610  0.07492239     1.49000
C578        C  0.38273938  0.26880687  0.08714256     0.93300
O579        O  0.39744386  0.22666025  0.08820549    -0.80300
O580        O  0.35741015  0.19903262  0.03681260    -0.73800
Al581      Al  0.38372267  0.23440870  0.03856356     1.90100
O582        O  0.38075232  0.20368882  0.10820703    -0.72900
O583        O  0.33134962  0.21406619  0.08315725    -0.72800
O584        O  0.35514702  0.22088092  0.15123532    -0.78400
O585        O  0.32914347  0.24000411  0.04805500    -0.76600
O586        O  0.36309011  0.23248074  0.06871252    -1.12800
O587        O  0.35385590  0.26181456  0.01565145    -0.72000
C588        C  0.36199811  0.25553981  0.98140516     0.98800
C589        C  0.39569333  0.21193979  0.10875598     0.95200
Al590      Al  0.35667707  0.21126805  0.09282857     1.55600
O591        O  0.38925562  0.25843130  0.05760560    -0.76600
C592        C  0.32231771  0.22523383  0.06043744     0.99300
C593        C  0.37070477  0.19880808  0.01036205     0.94200
O594        O  0.38282251  0.21076864  0.01241389    -0.81900
O595        O  0.13975168  0.25101639  0.06261062    -0.81400
C596        C  0.16797201  0.24215221  0.88766407     0.98000
O597        O  0.17252637  0.25399548  0.91587715    -0.70500
O598        O  0.14462715  0.27226800  0.94293200    -0.74100
Al599      Al  0.16339008  0.26028822  0.97377597     1.49000
C600        C  0.12885344  0.27474721  0.95754740     0.93300
O601        O  0.11665407  0.23163967  0.96054070    -0.80300
O602        O  0.15805393  0.20802071  0.01785907    -0.73800
Al603      Al  0.12939740  0.24133730  0.01013257     1.90100
O604        O  0.13551270  0.20970943  0.94509776    -0.72900
O605        O  0.18341377  0.22426039  0.97046877    -0.72800
O606        O  0.15973646  0.22814103  0.90037252    -0.78400
O607        O  0.18357824  0.25056980  0.00371120    -0.76600
O608        O  0.15044061  0.24029410  0.98149995    -1.12800
O609        O  0.15721018  0.27110423  0.03000141    -0.72000
C610        C  0.14953504  0.26483918  0.06465314     0.98800
C611        C  0.12015806  0.21682484  0.94166798     0.95200
Al612      Al  0.15854435  0.21930460  0.96019416     1.55600
O613        O  0.12268977  0.26470478  0.98834932    -0.76600
C614        C  0.19154004  0.23625656  0.99286820     0.99300
C615        C  0.14436692  0.20732160  0.04317079     0.94200
O616        O  0.13154545  0.21833592  0.03854109    -0.81900
O617        O  0.95271791  0.14537570  0.87094240    -0.81400
C618        C  0.99983124  0.12305089  0.73025927     0.98000
O619        O  0.99567785  0.13910869  0.74018981    -0.70500
O620        O  0.96105861  0.14425596  0.74409693    -0.74100
Al621      Al  0.97970403  0.14928318  0.78458572     1.49000
C622        C  0.94521138  0.13904006  0.75183570     0.93300
O623        O  0.95408473  0.09995121  0.81175772    -0.80300
O624        O  0.99435673  0.11605394  0.88533078    -0.73800
Al625      Al  0.95513114  0.12317991  0.83948312     1.90100
O626        O  0.98189290  0.09221937  0.82334910    -0.72900
O627        O  0.01374158  0.13190095  0.82280540    -0.72800
O628        O  0.99803717  0.11050358  0.75883178    -0.78400
O629        O  0.99873582  0.15718614  0.82199631    -0.76600
O630        O  0.97657075  0.12881871  0.81525269    -1.12800
O631        O  0.96438149  0.16377299  0.82112518    -0.72000
C632        C  0.95544357  0.16116156  0.85671956     0.98800
C633        C  0.96599614  0.08789887  0.81397599     0.95200
Al634      Al  0.99530261  0.11393675  0.82207044     1.55600
O635        O  0.94113146  0.13184756  0.78927236    -0.76600
C636        C  0.01311236  0.14868793  0.82849179     0.99300
C637        C  0.98086895  0.11400786  0.91096618     0.94200
O638        O  0.96509014  0.11380598  0.89480642    -0.81900
O639        O  0.95475704  0.90387142  0.77807923    -0.81400
C640        C  0.97493677  0.93679301  0.61415666     0.98000
O641        O  0.95917385  0.93693392  0.63061646    -0.70500
O642        O  0.94693194  0.90435525  0.64766098    -0.74100
Al643      Al  0.94921254  0.92551645  0.68363693     1.49000
C644        C  0.94763707  0.88845068  0.66255175     0.93300
O645        O  0.99059682  0.88947141  0.69490076    -0.80300
O646        O  0.99284529  0.93456862  0.76453349    -0.73800
Al647      Al  0.97258261  0.89787607  0.73515060     1.90100
O648        O  0.00703996  0.91399713  0.69494232    -0.72900
O649        O  0.97666839  0.95542143  0.70595290    -0.72800
O650        O  0.98833131  0.93329503  0.63842262    -0.78400
O651        O  0.94859067  0.94743128  0.71679611    -0.76600
O652        O  0.97041814  0.91886703  0.70660196    -1.12800
O653        O  0.93491267  0.91519574  0.73143327    -0.72000
C654        C  0.93874262  0.90818971  0.76926365     0.98800
C655        C  0.00534979  0.89732230  0.68688802     0.95200
Al656      Al  0.98958887  0.93317292  0.70138835     1.55600
O657        O  0.95563930  0.88514622  0.69918518    -0.76600
C658        C  0.96074254  0.95927953  0.71749564     0.99300
C659        C  0.99525993  0.92131191  0.79031899     0.94200
O660        O  0.99009031  0.90579656  0.77828343    -0.81900
O661        O  0.02257417  0.13543542  0.24029627    -0.81400
C662        C  0.04134620  0.11316548  0.41217137     0.98000
O663        O  0.02710268  0.11542217  0.38977923    -0.70500
O664        O  0.00624111  0.13091654  0.33005415    -0.74100
Al665      Al  0.02413974  0.11238210  0.32701409     1.49000
C666        C  0.00703170  0.14789601  0.33024010     0.93300
O667        O  0.05581301  0.16145083  0.31309023    -0.80300
O668        O  0.07778702  0.12890063  0.28249323    -0.73800
Al669      Al  0.03954757  0.14640198  0.28021843     1.90100
O670        O  0.06825050  0.14380572  0.36349890    -0.72900
O671        O  0.06463825  0.09766398  0.30813420    -0.72800
O672        O  0.05654590  0.11242138  0.39278640    -0.78400
O673        O  0.03718386  0.09033923  0.32711950    -0.76600
O674        O  0.04289429  0.12673106  0.31410377    -1.12800
O675        O  0.01925169  0.10773700  0.26536456    -0.72000
C676        C  0.01731354  0.11937167  0.23473175     0.98800
C677        C  0.06521726  0.15938126  0.34814639     0.95200
Al678      Al  0.06486171  0.12112768  0.33486901     1.55600
O679        O  0.02116671  0.15583235  0.31778829    -0.76600
C680        C  0.05255216  0.08586781  0.31313877     0.99300
C681        C  0.07333709  0.13508728  0.24437201     0.94200
O682        O  0.05738011  0.13997035  0.23756597    -0.81900
O683        O  0.02750108  0.90764277  0.29267596    -0.81400
C684        C  0.03527350  0.93125657  0.11291824     0.98000
O685        O  0.02465397  0.93797251  0.14172329    -0.70500
O686        O  0.00384850  0.91362612  0.17780583    -0.74100
Al687      Al  0.01912538  0.93142135  0.20292537     1.49000
C688        C  0.00069256  0.89804691  0.19256864     0.93300
O689        O  0.04222460  0.88160888  0.18975256    -0.80300
O690        O  0.07155033  0.92086023  0.24097542    -0.73800
Al691      Al  0.03502752  0.89586235  0.23946354     1.90100
O692        O  0.06588995  0.89735418  0.17019236    -0.72900
O693        O  0.05762115  0.94750683  0.19270264    -0.72800
O694        O  0.04916308  0.92293663  0.12584593    -0.78400
O695        O  0.03174272  0.95137215  0.22706617    -0.76600
O696        O  0.03775007  0.91642995  0.20913998    -1.12800
O697        O  0.00964352  0.92775399  0.26262430    -0.72000
C698        C  0.01520076  0.91916520  0.29679967     0.98800
C699        C  0.05719602  0.88267003  0.16998652     0.95200
Al700      Al  0.05917420  0.92180804  0.18441666     1.55600
O701        O  0.01088374  0.89089003  0.22133490    -0.76600
C702        C  0.04679606  0.95736266  0.21441728     0.99300
C703        C  0.07112766  0.90740543  0.26717233     0.94200
O704        O  0.05853887  0.89597500  0.26444203    -0.81900
C705        C  0.04932318  0.03462195  0.30831952    -0.11400
C706        C  0.05942703  0.03085258  0.26941644     0.11200
C707        C  0.06852434  0.04504120  0.24670395    -0.03200
C708        C  0.06672840  0.06278874  0.26338399    -0.06000
C709        C  0.05594488  0.06666766  0.30136690    -0.16700
C710        C  0.04764755  0.05222280  0.32532824     0.02200
C711        C  0.05865725  0.01209508  0.25166617     0.12100
C712        C  0.07957214  0.04151509  0.20432413     0.62700
H713        H  0.07302238  0.07389725  0.24546853     0.12200
C714        C  0.03707256  0.05513652  0.36883295     0.54900
H715        H  0.04226463  0.02359091  0.32471775     0.07900
C716        C  0.06806281  0.99763162  0.27229827    -0.05900
C717        C  0.06441500  0.97985214  0.25792204    -0.06600
C718        C  0.05154342  0.97629404  0.22444652    -0.16200
C719        C  0.04278427  0.99078490  0.20250471    -0.01800
C720        C  0.04641313  0.00850212  0.21676552    -0.09300
C721        C  0.08159579  0.00096184  0.30983991     0.65000
H722        H  0.07106269  0.96852830  0.27391311     0.10400
C723        C  0.02961474  0.98745478  0.16427371     0.63300
H724        H  0.03918417  0.01970847  0.20189243     0.07800
F725        F  0.03414219  0.03907352  0.39166642    -0.19700
F726        F  0.02046169  0.06260330  0.35918095    -0.15900
F727        F  0.04652671  0.06646264  0.39744519    -0.19400
F728        F  0.06835949  0.03621923  0.16951746    -0.22800
F729        F  0.09200270  0.02803175  0.21232658    -0.24300
F730        F  0.08888850  0.05675367  0.19044642    -0.18300
F731        F  0.01460255  0.97849713  0.18064805    -0.20700
F732        F  0.03779258  0.97709510  0.13119219    -0.21900
F733        F  0.02395641  0.00339113  0.14446835    -0.19100
F734        F  0.09015383  0.98521835  0.32284373    -0.19200
F735        F  0.07299730  0.00801014  0.34736478    -0.23000
F736        F  0.09462015  0.01300751  0.29531171    -0.24600
C737        C  0.02186611  0.93955341  0.89132860    -0.11400
C738        C  0.01885478  0.92577198  0.92281674     0.11200
C739        C  0.00842627  0.91054453  0.91087301    -0.03200
C740        C  0.00145278  0.90957872  0.86693414    -0.06000
C741        C  0.00397724  0.92355972  0.83523651    -0.16700
C742        C  0.01454715  0.93886044  0.84752219     0.02200
C743        C  0.02436990  0.92894809  0.97005864     0.12100
C744        C  0.00416693  0.89565270  0.94482238     0.62700
H745        H  0.99340450  0.89799540  0.85756198     0.12200
C746        C  0.01812338  0.95451555  0.81540235     0.54900
H747        H  0.02951075  0.95123041  0.90215788     0.07900
C748        C  0.04149413  0.92423495  0.98673308    -0.05900
C749        C  0.04469478  0.92606397  0.03333863    -0.06600
C750        C  0.03135250  0.93248229  0.06345706    -0.16200
C751        C  0.01453703  0.93845044  0.04538775    -0.01800
C752        C  0.01160033  0.93672123  0.99873216    -0.09300
C753        C  0.05624812  0.91739748  0.95542394     0.65000
H754        H  0.05764621  0.92202620  0.04664216     0.10400
C755        C  0.99923921  0.94589637  0.07417452     0.63300
H756        H  0.99882764  0.94065875  0.98410613     0.07800
F757        F  0.02989524  0.96703192  0.83369753    -0.19700
F758        F  0.00216941  0.96337965  0.80604339    -0.15900
F759        F  0.02574862  0.94820072  0.77571586    -0.19400
F760        F  0.99451007  0.90259886  0.98082441    -0.22800
F761        F  0.01992084  0.88813685  0.96086409    -0.24300
F762        F  0.99399080  0.88196639  0.92577826    -0.18300
F763        F  0.98470256  0.95135210  0.04828925    -0.20700
F764        F  0.00507148  0.96077615  0.09814457    -0.21900
F765        F  0.99309115  0.93272662  0.10348475    -0.19100
F766        F  0.07197648  0.91362906  0.97865091    -0.19200
F767        F  0.06009563  0.93035405  0.92313609    -0.23000
F768        F  0.05075237  0.90179949  0.93392622    -0.24600
C769        C  0.99938055  0.91522224  0.41952387    -0.11400
C770        C  0.99221394  0.93244783  0.42647072     0.11200
C771        C  0.99203298  0.94510312  0.39078289    -0.03200
C772        C  0.99969162  0.94017358  0.34906257    -0.06000
C773        C  0.00725325  0.92298476  0.34198986    -0.16700
C774        C  0.00666282  0.91004443  0.37762756     0.02200
C775        C  0.98521537  0.93663802  0.47212076     0.12100
C776        C  0.98346690  0.96354138  0.39665239     0.62700
H777        H  0.99999733  0.94988507  0.32168624     0.12200
C778        C  0.01310178  0.89071295  0.37182603     0.54900
H779        H  0.99919206  0.90581932  0.44760561     0.07900
C780        C  0.96961247  0.92815536  0.48995629    -0.05900
C781        C  0.96621796  0.92945695  0.53645926    -0.06600
C782        C  0.97765562  0.93916057  0.56519705    -0.16200
C783        C  0.99244589  0.94887395  0.54681645    -0.01800
C784        C  0.99615163  0.94711629  0.50044022    -0.09300
C785        C  0.95683705  0.91663704  0.46222126     0.65000
H786        H  0.95495658  0.92204431  0.55082374     0.10400
C787        C  0.00428161  0.96104619  0.57558271     0.63300
H788        H  0.00821207  0.95318456  0.48633312     0.07800
F789        F  0.00870018  0.88004927  0.40874799    -0.19700
F790        F  0.03161657  0.89039926  0.36711153    -0.15900
F791        F  0.00512820  0.88309973  0.33412886    -0.19400
F792        F  0.99304383  0.97352356  0.42790387    -0.22800
F793        F  0.96589602  0.96155689  0.41161943    -0.24300
F794        F  0.98315584  0.97313930  0.35647503    -0.18300
F795        F  0.01515172  0.95087260  0.60344231    -0.20700
F796        F  0.99362961  0.97225283  0.60173361    -0.21900
F797        F  0.01537212  0.97180856  0.54913764    -0.19100
F798        F  0.93921547  0.92107623  0.47278133    -0.19200
F799        F  0.95961181  0.89866974  0.47270451    -0.23000
F800        F  0.95904747  0.91898757  0.41615201    -0.24600
C801        C  0.97630697  0.10328045  0.03742842    -0.11400
C802        C  0.99225555  0.11102448  0.05361430     0.11200
C803        C  0.00452846  0.11920917  0.02323887    -0.03200
C804        C  0.00010931  0.11979449  0.97723373    -0.06000
C805        C  0.98396068  0.11240003  0.96052074    -0.16700
C806        C  0.97178936  0.10386734  0.99117340     0.02200
C807        C  0.99568235  0.11112092  0.10284737     0.12100
C808        C  0.02222250  0.12735839  0.03942233     0.62700
H809        H  0.00930709  0.12631671  0.95387229     0.12200
C810        C  0.95421024  0.09533263  0.97579623     0.54900
H811        H  0.96726590  0.09705090  0.06167961     0.07900
C812        C  0.98894876  0.12505473  0.13073039    -0.05900
C813        C  0.99569607  0.12659883  0.17478339    -0.06600
C814        C  0.00865653  0.11460791  0.19157241    -0.16200
C815        C  0.01423369  0.09972541  0.16496709    -0.01800
C816        C  0.00748346  0.09820247  0.12069744    -0.09300
C817        C  0.97506141  0.13845734  0.11361657     0.65000
H818        H  0.99124036  0.13752807  0.19621103     0.10400
C819        C  0.02783980  0.08607767  0.18224693     0.63300
H820        H  0.01207545  0.08745402  0.09873722     0.07800
F821        F  0.94255582  0.10858836  0.96087059    -0.19700
F822        F  0.94570206  0.08606489  0.01051867    -0.15900
F823        F  0.95748573  0.08318429  0.94126708    -0.19400
F824        F  0.03288871  0.11403817  0.05808783    -0.22800
F825        F  0.01896129  0.14046215  0.07165655    -0.24300
F826        F  0.03182871  0.13528719  0.00442457    -0.18300
F827        F  0.02062633  0.07678416  0.21862345    -0.20700
F828        F  0.04343035  0.09477660  0.19569286    -0.21900
F829        F  0.03244279  0.07360726  0.14936394    -0.19100
F830        F  0.97068251  0.15117044  0.14611765    -0.19200
F831        F  0.95946232  0.12938584  0.10195948    -0.23000
F832        F  0.98161243  0.14750447  0.07608685    -0.24600
C833        C  0.00642510  0.12047482  0.60307954    -0.11400
C834        C  0.02318395  0.11194339  0.60015779     0.11200
C835        C  0.03251970  0.10720341  0.64011824    -0.03200
C836        C  0.02417112  0.11053205  0.68219021    -0.06000
C837        C  0.00734436  0.11912945  0.68500724    -0.16700
C838        C  0.99827174  0.12418692  0.64482999     0.02200
C839        C  0.03074457  0.10947778  0.55414780     0.12100
C840        C  0.05126182  0.09906205  0.63823036     0.62700
H841        H  0.03096057  0.10696171  0.71331111     0.12200
C842        C  0.97988749  0.13309976  0.64569051     0.54900
H843        H  0.99985277  0.12443164  0.57193567     0.07900
C844        C  0.02380083  0.09633753  0.52408248    -0.05900
C845        C  0.02856716  0.09736027  0.47810159    -0.06600
C846        C  0.03986143  0.11107862  0.46165903    -0.16200
C847        C  0.04749026  0.12368558  0.49210837    -0.01800
C848        C  0.04273427  0.12264433  0.53808681    -0.09300
C849        C  0.01072462  0.08186425  0.54003664     0.65000
H850        H  0.02279458  0.08794864  0.45412274     0.10400
C851        C  0.05946776  0.13896200  0.47574255     0.63300
H852        H  0.04744842  0.13282260  0.56152072     0.07800
F853        F  0.97268943  0.13489275  0.60276995    -0.19700
F854        F  0.98127350  0.15016862  0.66413180    -0.15900
F855        F  0.96810697  0.12271764  0.67103811    -0.19400
F856        F  0.06312471  0.11118543  0.61865621    -0.22800
F857        F  0.05101786  0.08341509  0.61284855    -0.24300
F858        F  0.05765286  0.09488197  0.68092347    -0.18300
F859        F  0.06505645  0.14994303  0.51089382    -0.20700
F860        F  0.05007031  0.14950007  0.44530433    -0.21900
F861        F  0.07467498  0.13200752  0.45511122    -0.19100
F862        F  0.00757613  0.06910472  0.50678526    -0.19200
F863        F  0.99441447  0.08959807  0.55152913    -0.23000
F864        F  0.01764403  0.07306182  0.57737126    -0.24600
C865        C  0.94476212  0.00125338  0.78051337    -0.11400
C866        C  0.95309638  0.01480157  0.75462718     0.11200
C867        C  0.96310531  0.01007138  0.71555338    -0.03200
C868        C  0.96428216  0.99180066  0.70346605    -0.06000
C869        C  0.95653173  0.97814658  0.73009865    -0.16700
C870        C  0.94649705  0.98284782  0.76926987     0.02200
C871        C  0.95436144  0.03319203  0.77404788     0.12100
C872        C  0.97351134  0.02410465  0.68836731     0.62700
H873        H  0.97200413  0.98791603  0.67390704     0.12200
C874        C  0.93876612  0.96855458  0.80070197     0.54900
H875        H  0.93769852  0.00520478  0.81103405     0.07900
C876        C  0.94179953  0.04704093  0.76515096    -0.05900
C877        C  0.94572923  0.06464120  0.78033411    -0.06600
C878        C  0.96163447  0.06861244  0.80434729    -0.16200
C879        C  0.97315448  0.05409667  0.81729404    -0.01800
C880        C  0.96921365  0.03668621  0.80159960    -0.09300
C881        C  0.92441107  0.04322380  0.73994631     0.65000
H882        H  0.93659709  0.07552171  0.77230097     0.10400
C883        C  0.98968750  0.05653866  0.84707892     0.63300
H884        H  0.97822483  0.02559685  0.80908749     0.07800
F885        F  0.93128028  0.97606402  0.83928000    -0.19700
F886        F  0.95227056  0.95686993  0.81404998    -0.15900
F887        F  0.92542137  0.95895042  0.77875130    -0.19400
F888        F  0.98690736  0.03158455  0.71481355    -0.22800
F889        F  0.96211382  0.03763600  0.67401873    -0.24300
F890        F  0.98158657  0.01667382  0.65045926    -0.18300
F891        F  0.98525472  0.06636910  0.88526017    -0.20700
F892        F  0.00315295  0.06527526  0.82311785    -0.21900
F893        F  0.99656321  0.04016642  0.86154869    -0.19100
F894        F  0.91354749  0.05836399  0.73750401    -0.19200
F895        F  0.91486683  0.02980889  0.76205163    -0.23000
F896        F  0.92811074  0.03760957  0.69637907    -0.24600
C897        C  0.12948050  0.18225942  0.14703191    -0.11400
C898        C  0.12741230  0.16484693  0.12921345     0.11200
C899        C  0.13446069  0.16079514  0.08583710    -0.03200
C900        C  0.14196152  0.17490370  0.05998918    -0.06000
C901        C  0.14225223  0.19266837  0.07629485    -0.16700
C902        C  0.13714118  0.19624103  0.12147364     0.02200
C903        C  0.11507337  0.15252238  0.15382135     0.12100
C904        C  0.13297073  0.14203037  0.06571597     0.62700
H905        H  0.14606333  0.17246343  0.02532606     0.12200
C906        C  0.13854383  0.21496811  0.14180047     0.54900
H907        H  0.12385971  0.18519987  0.18008909     0.07900
C908        C  0.11954594  0.14489838  0.19610476    -0.05900
C909        C  0.10561142  0.13779281  0.22310993    -0.06600
C910        C  0.08745204  0.13822059  0.20917815    -0.16200
C911        C  0.08347740  0.14368956  0.16410668    -0.01800
C912        C  0.09738794  0.15116268  0.13773422    -0.09300
C913        C  0.13879953  0.14496795  0.21341656     0.65000
H914        H  0.10877492  0.13303799  0.25678414     0.10400
C915        C  0.06474554  0.14235736  0.14365770     0.63300
H916        H  0.09426683  0.15716755  0.10526435     0.07800
F917        F  0.13866883  0.21421567  0.18860596    -0.19700
F918        F  0.12398016  0.22521889  0.12834501    -0.15900
F919        F  0.15433918  0.22328719  0.12796315    -0.19400
F920        F  0.11528683  0.13846436  0.05423930    -0.22800
F921        F  0.13870056  0.12929336  0.09663491    -0.24300
F922        F  0.14347040  0.14032346  0.02717061    -0.18300
F923        F  0.05384621  0.15586978  0.16065962    -0.20700
F924        F  0.05725523  0.12568951  0.15325247    -0.21900
F925        F  0.06525448  0.14415630  0.09702490    -0.19100
F926        F  0.14056464  0.13470961  0.25231130    -0.19200
F927        F  0.14416801  0.16238513  0.22319640    -0.23000
F928        F  0.15020248  0.13786670  0.18099401    -0.24600
C929        C  0.06045424  0.16770032  0.83300803    -0.11400
C930        C  0.05950773  0.17780005  0.87290501     0.11200
C931        C  0.04318944  0.17881840  0.89759147    -0.03200
C932        C  0.02833184  0.16886756  0.88215917    -0.06000
C933        C  0.02935325  0.15845262  0.84271181    -0.16700
C934        C  0.04553757  0.15793067  0.81724164     0.02200
C935        C  0.07591358  0.18721481  0.88798586     0.12100
C936        C  0.04148280  0.19050858  0.93959249     0.62700
H937        H  0.01582515  0.16898007  0.90103106     0.12200
C938        C  0.04691580  0.14754278  0.77310855     0.54900
H939        H  0.07307613  0.16747165  0.81451923     0.07900
C940        C  0.08893220  0.17850132  0.91504326    -0.05900
C941        C  0.10350939  0.18869343  0.93099135    -0.06600
C942        C  0.10581627  0.20684184  0.91857332    -0.16200
C943        C  0.09386018  0.21488097  0.88721631    -0.01800
C944        C  0.07865912  0.20503113  0.87368856    -0.09300
C945        C  0.08759016  0.15851434  0.92615947     0.65000
H946        H  0.11311764  0.18261733  0.95393234     0.10400
C947        C  0.09680694  0.23318808  0.86524696     0.63300
H948        H  0.06897474  0.21117196  0.85100846     0.07800
F949        F  0.04515878  0.12926564  0.78131516    -0.19700
F950        F  0.06332344  0.15034386  0.75180119    -0.15900
F951        F  0.03346981  0.15307245  0.74395001    -0.19400
F952        F  0.04472330  0.20833722  0.92839895    -0.22800
F953        F  0.05380149  0.18514414  0.97186973    -0.24300
F954        F  0.02443587  0.18940791  0.95857062    -0.18300
F955        F  0.09613609  0.23125805  0.81873003    -0.20700
F956        F  0.11326181  0.24087781  0.87563260    -0.21900
F957        F  0.08322722  0.24478535  0.87846715    -0.19100
F958        F  0.10132183  0.15297696  0.95455257    -0.19200
F959        F  0.08876795  0.14861209  0.88665350    -0.23000
F960        F  0.07136731  0.15471153  0.94718939    -0.24600
C961        C  0.24109302  0.24279582  0.02224140    -0.11400
C962        C  0.24700275  0.22488519  0.02159565     0.11200
C963        C  0.23458272  0.21071297  0.01479609    -0.03200
C964        C  0.21646473  0.21514305  0.00746761    -0.06000
C965        C  0.21057655  0.23317792  0.00554931    -0.16700
C966        C  0.22316778  0.24737105  0.01281526     0.02200
C967        C  0.26644843  0.22175548  0.02812451     0.12100
C968        C  0.24045397  0.19108672  0.01439157     0.62700
H969        H  0.20674343  0.20442579  0.00244386     0.12200
C970        C  0.21826869  0.26721917  0.00851390     0.54900
H971        H  0.25094830  0.25326662  0.02878513     0.07900
C972        C  0.27917570  0.22630792  0.99423903    -0.05900
C973        C  0.29751139  0.22628375  0.00558166    -0.06600
C974        C  0.30334239  0.22151094  0.04908207    -0.16200
C975        C  0.29064990  0.21545456  0.08175496    -0.01800
C976        C  0.27226669  0.21610614  0.07082843    -0.09300
C977        C  0.27340105  0.23168091  0.94678963     0.65000
H978        H  0.30744917  0.23064641  0.98094845     0.10400
C979        C  0.29628316  0.20908807  0.12846508     0.63300
H980        H  0.26218972  0.21286641  0.09613746     0.07800
F981        F  0.23320584  0.27833544  0.01231895    -0.19700
F982        F  0.20629562  0.27200308  0.04224101    -0.15900
F983        F  0.21064691  0.27042541  0.96666657    -0.19400
F984        F  0.24695693  0.18626521  0.05643020    -0.22800
F985        F  0.25384029  0.18860249  0.98240645    -0.24300
F986        F  0.22633138  0.17958923  0.00401218    -0.18300
F987        F  0.28159276  0.20461998  0.15523017    -0.20700
F988        F  0.30579601  0.22254961  0.15024659    -0.21900
F989        F  0.30694301  0.19388496  0.12450712    -0.19100
F990        F  0.28799136  0.23308916  0.91770471    -0.19200
F991        F  0.26479594  0.24819020  0.94773536    -0.23000
F992        F  0.26177499  0.21886414  0.92939408    -0.24600
C993        C  0.07298331  0.20656852  0.39618245    -0.11400
C994        C  0.09122907  0.20560361  0.40768219     0.11200
C995        C  0.10057527  0.18907902  0.40307274    -0.03200
C996        C  0.09144644  0.17417509  0.38439781    -0.06000
C997        C  0.07339693  0.17536993  0.37044353    -0.16700
C998        C  0.06381631  0.19171219  0.37757937     0.02200
C999        C  0.10015586  0.22218077  0.42471242     0.12100
C1000       C  0.12010026  0.18729274  0.41771010     0.62700
H1001       H  0.09849363  0.16153887  0.37954965     0.12200
C1002       C  0.04397291  0.19352321  0.36633635     0.54900
H1003       H  0.06606424  0.21927292  0.40113295     0.07900
C1004       C  0.10724368  0.23541909  0.39490305    -0.05900
C1005       C  0.11620915  0.25040120  0.41340227    -0.06600
C1006       C  0.11795195  0.25253706  0.46022053    -0.16200
C1007       C  0.11016842  0.23982679  0.49004670    -0.01800
C1008       C  0.10128994  0.22474108  0.47167134    -0.09300
C1009       C  0.10526896  0.23377559  0.34392175     0.65000
H1010       H  0.12203305  0.26058519  0.39146218     0.10400
C1011       C  0.11137641  0.24230056  0.54086484     0.63300
H1012       H  0.09534256  0.21468381  0.49376067     0.07800
F1013       F  0.04178357  0.19356418  0.31996456    -0.19700
F1014       F  0.03674929  0.20939228  0.38306117    -0.15900
F1015       F  0.03442248  0.17933789  0.38519418    -0.19400
F1016       F  0.12151412  0.19073117  0.46351329    -0.22800
F1017       F  0.13074899  0.19945877  0.39427831    -0.24300
F1018       F  0.12674592  0.17014789  0.40974157    -0.18300
F1019       F  0.10306577  0.22833651  0.56407080    -0.20700
F1020       F  0.10306296  0.25827054  0.55301084    -0.21900
F1021       F  0.12924658  0.24293591  0.55389865    -0.19100
F1022       F  0.11368349  0.24785444  0.32134360    -0.19200
F1023       F  0.08722024  0.23399054  0.33254303    -0.23000
F1024       F  0.11283229  0.21782425  0.32901151    -0.24600
C1025       C  0.17890720  0.25265919  0.66522825    -0.11400
C1026       C  0.17196180  0.26254083  0.70162670     0.11200
C1027       C  0.16313113  0.27915621  0.69414549    -0.03200
C1028       C  0.15985485  0.28443261  0.64951497    -0.06000
C1029       C  0.16565455  0.27394278  0.61286774    -0.16700
C1030       C  0.17599703  0.25817569  0.62038327     0.02200
C1031       C  0.17276773  0.25461023  0.74717638     0.12100
C1032       C  0.15701900  0.29110285  0.73307068     0.62700
H1033       H  0.15251681  0.29676825  0.64277142     0.12200
C1034       C  0.18322182  0.24684552  0.58162945     0.54900
H1035       H  0.18605013  0.24025321  0.67235305     0.07900
C1036       C  0.15926398  0.24260291  0.76254656    -0.05900
C1037       C  0.15893244  0.23797258  0.80846555    -0.06600
C1038       C  0.17139184  0.24529121  0.83908104    -0.16200
C1039       C  0.18572150  0.25633301  0.82274461    -0.01800
C1040       C  0.18623288  0.26057342  0.77651384    -0.09300
C1041       C  0.14489502  0.23530580  0.73085510     0.65000
H1042       H  0.14823430  0.22938897  0.82121358     0.10400
C1043       C  0.20017492  0.26409961  0.85346588     0.63300
H1044       H  0.19653167  0.26952967  0.76327789     0.07800
F1045       F  0.19179765  0.23143963  0.59693808    -0.19700
F1046       F  0.19559088  0.25675810  0.55685730    -0.15900
F1047       F  0.16921600  0.24158706  0.55381416    -0.19400
F1048       F  0.17179269  0.29637477  0.75822355    -0.22800
F1049       F  0.14512299  0.28182687  0.76068198    -0.24300
F1050       F  0.14847727  0.30655238  0.71789742    -0.18300
F1051       F  0.21440511  0.27130690  0.82898306    -0.20700
F1052       F  0.20701434  0.25070596  0.88112168    -0.21900
F1053       F  0.19297208  0.27779136  0.87958316    -0.19100
F1054       F  0.13290818  0.22398546  0.75300032    -0.19200
F1055       F  0.15293281  0.22558943  0.69641530    -0.23000
F1056       F  0.13518147  0.24938786  0.71236539    -0.24600
C1057       C  0.14279623  0.28583323  0.17941001    -0.11400
C1058       C  0.16064135  0.28647669  0.19459434     0.11200
C1059       C  0.17495154  0.28116858  0.16589945    -0.03200
C1060       C  0.17069894  0.27472601  0.12271701    -0.06000
C1061       C  0.15279166  0.27339518  0.10829838    -0.16700
C1062       C  0.13860173  0.27962147  0.13605147     0.02200
C1063       C  0.16341739  0.29000510  0.24287879     0.12100
C1064       C  0.19448635  0.28185589  0.18118112     0.62700
H1065       H  0.18125669  0.26987305  0.10059196     0.12200
C1066       C  0.11928890  0.28018224  0.11950387     0.54900
H1067       H  0.13210630  0.28966972  0.20249249     0.07900
C1068       C  0.16172523  0.30736440  0.26186592    -0.05900
C1069       C  0.16232605  0.30897896  0.30903310    -0.06600
C1070       C  0.16453903  0.29383496  0.33725055    -0.16200
C1071       C  0.16713334  0.27649429  0.31755872    -0.01800
C1072       C  0.16601217  0.27495760  0.27053775    -0.09300
C1073       C  0.15901714  0.32399858  0.23259665     0.65000
H1074       H  0.16046975  0.32213162  0.32420837     0.10400
C1075       C  0.17124061  0.25958023  0.34491840     0.63300
H1076       H  0.16678924  0.26180274  0.25468542     0.07800
F1077       F  0.10801167  0.28870732  0.15010718    -0.19700
F1078       F  0.11284966  0.26288709  0.11291004    -0.15900
F1079       F  0.11863202  0.28962543  0.07919772    -0.19400
F1080       F  0.19728894  0.26971170  0.21592551    -0.22800
F1081       F  0.19867043  0.29901096  0.19615382    -0.24300
F1082       F  0.20624298  0.27757912  0.14637645    -0.18300
F1083       F  0.15619136  0.25429980  0.36922005    -0.20700
F1084       F  0.18542408  0.26285719  0.37405930    -0.21900
F1085       F  0.17616821  0.24526044  0.31748965    -0.19100
F1086       F  0.15906497  0.33968483  0.25799758    -0.19200
F1087       F  0.14269455  0.32294958  0.21039043    -0.23000
F1088       F  0.17272111  0.32525613  0.20099943    -0.24600
C1089       C  0.33598062  0.27221038  0.77346783    -0.11400
C1090       C  0.34655486  0.28291015  0.80206034     0.11200
C1091       C  0.35540308  0.29837983  0.78458482    -0.03200
C1092       C  0.35394333  0.30218146  0.73815291    -0.06000
C1093       C  0.34429200  0.29084975  0.70890069    -0.16700
C1094       C  0.33452188  0.27598340  0.72698995     0.02200
C1095       C  0.34999323  0.27631441  0.84861117     0.12100
C1096       C  0.36671883  0.31056101  0.81461611     0.62700
H1097       H  0.36122323  0.31352141  0.72386227     0.12200
C1098       C  0.32270475  0.26400301  0.69772503     0.54900
H1099       H  0.32952807  0.26033207  0.78751361     0.07900
C1100       C  0.33748888  0.27828081  0.88439755    -0.05900
C1101       C  0.34208463  0.27156715  0.92741720    -0.06600
C1102       C  0.35879450  0.26322403  0.93562785    -0.16200
C1103       C  0.37159882  0.26196198  0.89967603    -0.01800
C1104       C  0.36652228  0.26787885  0.85645656    -0.09300
C1105       C  0.31928095  0.28706962  0.87693334     0.65000
H1106       H  0.33241208  0.27244785  0.95481657     0.10400
C1107       C  0.39097735  0.25574146  0.90651692     0.63300
H1108       H  0.37570119  0.26642280  0.82813548     0.07800
F1109       F  0.31136446  0.25331947  0.72370695    -0.19700
F1110       F  0.33333406  0.25274351  0.67168782    -0.15900
F1111       F  0.31204979  0.27448942  0.66982185    -0.19400
F1112       F  0.38157233  0.30132290  0.83046949    -0.22800
F1113       F  0.35654256  0.31639394  0.85097502    -0.24300
F1114       F  0.37286932  0.32562387  0.79151342    -0.18300
F1115       F  0.39167702  0.23766430  0.91715157    -0.20700
F1116       F  0.39878138  0.26552884  0.94090346    -0.21900
F1117       F  0.40139488  0.25829263  0.86808675    -0.19100
F1118       F  0.31003160  0.28949694  0.91720647    -0.19200
F1119       F  0.30890867  0.27629614  0.84909879    -0.23000
F1120       F  0.32146427  0.30379491  0.85690031    -0.24600
C1121       C  0.34976401  0.23483391  0.29274955    -0.11400
C1122       C  0.33628504  0.24724955  0.30358732     0.11200
C1123       C  0.32489923  0.25403153  0.26936774    -0.03200
C1124       C  0.32802745  0.24862917  0.22445415    -0.06000
C1125       C  0.34243196  0.23715972  0.21285990    -0.16700
C1126       C  0.35322679  0.22966140  0.24795398     0.02200
C1127       C  0.33769762  0.25588143  0.34839645     0.12100
C1128       C  0.31008564  0.26752026  0.28001826     0.62700
H1129       H  0.31967213  0.25402469  0.19772060     0.12200
C1130       C  0.36903401  0.21714027  0.23880225     0.54900
H1131       H  0.35843557  0.23019449  0.31976905     0.07900
C1132       C  0.33166443  0.24760128  0.38881024    -0.05900
C1133       C  0.33637308  0.25559974  0.43027525    -0.06600
C1134       C  0.34751461  0.27093311  0.43213432    -0.16200
C1135       C  0.35326948  0.27932851  0.39142266    -0.01800
C1136       C  0.34816897  0.27157995  0.35022715    -0.09300
C1137       C  0.32093788  0.23013399  0.38820797     0.65000
H1138       H  0.33207946  0.24944491  0.46176931     0.10400
C1139       C  0.36437972  0.29654982  0.39091588     0.63300
H1140       H  0.35292036  0.27734154  0.31865480     0.07800
F1141       F  0.36286713  0.20125923  0.21975144    -0.19700
F1142       F  0.37820132  0.21263673  0.27793783    -0.15900
F1143       F  0.38119357  0.22549385  0.21001372    -0.19400
F1144       F  0.31753933  0.28351643  0.29506281    -0.22800
F1145       F  0.29884258  0.26071590  0.31322347    -0.24300
F1146       F  0.29966646  0.27127875  0.24241031    -0.18300
F1147       F  0.38119831  0.29339766  0.40918789    -0.20700
F1148       F  0.35554858  0.30970317  0.41548909    -0.21900
F1149       F  0.36694029  0.30310513  0.34747313    -0.19100
F1150       F  0.31577218  0.22487867  0.43130237    -0.19200
F1151       F  0.33124378  0.21647873  0.36972971    -0.23000
F1152       F  0.30553992  0.23223312  0.36265408    -0.24600
C1153       C  0.27276055  0.32604876  0.56278766    -0.11400
C1154       C  0.26743127  0.32043045  0.51949011     0.11200
C1155       C  0.28060486  0.31458946  0.48793991    -0.03200
C1156       C  0.29854893  0.31292728  0.50246958    -0.06000
C1157       C  0.30354031  0.31714827  0.54686726    -0.16700
C1158       C  0.29072749  0.32434287  0.57722754     0.02200
C1159       C  0.24784765  0.31859781  0.51022996     0.12100
C1160       C  0.27564125  0.30957879  0.43973945     0.62700
H1161       H  0.30874927  0.30764619  0.47979151     0.12200
C1162       C  0.29601449  0.32953610  0.62497184     0.54900
H1163       H  0.26251688  0.33084412  0.58598591     0.07900
C1164       C  0.23788800  0.30377714  0.52753422    -0.05900
C1165       C  0.21953767  0.30237114  0.51683986    -0.06600
C1166       C  0.21092172  0.31508068  0.48921571    -0.16200
C1167       C  0.22096002  0.32961573  0.47076978    -0.01800
C1168       C  0.23928304  0.33136772  0.48258575    -0.09300
C1169       C  0.24654692  0.28948483  0.55732157     0.65000
H1170       H  0.21164950  0.29128225  0.53034205     0.10400
C1171       C  0.21266651  0.34254053  0.43691824     0.63300
H1172       H  0.24717049  0.34256580  0.46973946     0.07800
F1173       F  0.28153417  0.33625204  0.64926558    -0.19700
F1174       F  0.30924776  0.34268418  0.62340020    -0.15900
F1175       F  0.30258372  0.31460178  0.64760272    -0.19400
F1176       F  0.26863538  0.32446658  0.41782915    -0.22800
F1177       F  0.26295908  0.29589121  0.43988387    -0.24300
F1178       F  0.29045649  0.30373206  0.41526650    -0.18300
F1179       F  0.22537442  0.35420924  0.41882094    -0.20700
F1180       F  0.19947559  0.35274348  0.45773961    -0.21900
F1181       F  0.20511740  0.33289460  0.40163883    -0.19100
F1182       F  0.23505750  0.27506919  0.56515794    -0.19200
F1183       F  0.25101434  0.29691750  0.59866095    -0.23000
F1184       F  0.26193808  0.28282152  0.53687754    -0.24600
C1185       C  0.77244856  0.73831856  0.53340141    -0.11400
C1186       C  0.76708240  0.72130875  0.51816942     0.11200
C1187       C  0.78006538  0.70763678  0.51134427    -0.03200
C1188       C  0.79824302  0.71149778  0.52119319    -0.06000
C1189       C  0.80368040  0.72862392  0.53651543    -0.16700
C1190       C  0.79046704  0.74227431  0.54341989     0.02200
C1191       C  0.74765336  0.71889886  0.50856432     0.12100
C1192       C  0.77474235  0.68923276  0.49325119     0.62700
H1193       H  0.80844054  0.70127356  0.51593749     0.12200
C1194       C  0.79491758  0.76090014  0.56203138     0.54900
H1195       H  0.76220397  0.74860656  0.53723760     0.07900
C1196       C  0.73483770  0.71724651  0.54396628    -0.05900
C1197       C  0.71645772  0.71879855  0.53345017    -0.06600
C1198       C  0.71075699  0.72235150  0.48925500    -0.16200
C1199       C  0.72342247  0.72302680  0.45351065    -0.01800
C1200       C  0.74181931  0.72133106  0.46386570    -0.09300
C1201       C  0.74057140  0.71476519  0.59287704     0.65000
H1202       H  0.70640253  0.71800683  0.55999166     0.10400
C1203       C  0.71749620  0.72633236  0.40511807     0.63300
H1204       H  0.75186758  0.72288449  0.43749842     0.07800
F1205       F  0.77955642  0.77037105  0.57396932    -0.19700
F1206       F  0.80397035  0.77091530  0.52988806    -0.15900
F1207       F  0.80544694  0.75944038  0.60020547    -0.19400
F1208       F  0.76758553  0.69101724  0.45037154    -0.22800
F1209       F  0.76200070  0.68141705  0.52129734    -0.24300
F1210       F  0.78935744  0.67769866  0.49056018    -0.18300
F1211       F  0.70923709  0.74299200  0.40197517    -0.20700
F1212       F  0.70545851  0.71307194  0.39206012    -0.21900
F1213       F  0.73190334  0.72607324  0.37527576    -0.19100
F1214       F  0.72600073  0.71113616  0.62080554    -0.19200
F1215       F  0.74883917  0.73028927  0.60835348    -0.23000
F1216       F  0.75248869  0.70053083  0.59634016    -0.24600
C1217       C  0.91414398  0.85868682  0.59898524    -0.11400
C1218       C  0.92142368  0.84164665  0.60813462     0.11200
C1219       C  0.93813246  0.84019674  0.63058883    -0.03200
C1220       C  0.94669874  0.85603722  0.64499884    -0.06000
C1221       C  0.93895308  0.87315407  0.63861739    -0.16700
C1222       C  0.92243625  0.87460486  0.61462906     0.02200
C1223       C  0.91104548  0.82540793  0.59502421     0.12100
C1224       C  0.94668617  0.82196447  0.64011479     0.62700
H1225       H  0.95942062  0.85510838  0.66270235     0.12200
C1226       C  0.91303502  0.89256589  0.60751314     0.54900
H1227       H  0.90149504  0.85930855  0.58087726     0.07900
C1228       C  0.89717622  0.81834797  0.62270572    -0.05900
C1229       C  0.88916228  0.80187474  0.61045704    -0.06600
C1230       C  0.89408078  0.79264853  0.57064613    -0.16200
C1231       C  0.90726255  0.80056032  0.54134660    -0.01800
C1232       C  0.91563301  0.81673547  0.55468999    -0.09300
C1233       C  0.89076870  0.82832722  0.66467304     0.65000
H1234       H  0.87882243  0.79614763  0.63203738     0.10400
C1235       C  0.91238959  0.79251754  0.49572484     0.63300
H1236       H  0.92604442  0.82279087  0.53385729     0.07800
F1237       F  0.89658132  0.89051871  0.58612294    -0.19700
F1238       F  0.92363455  0.90368099  0.58085319    -0.15900
F1239       F  0.90989058  0.90073041  0.64883993    -0.19400
F1240       F  0.95071183  0.81342881  0.59980305    -0.22800
F1241       F  0.93495650  0.81127993  0.66482802    -0.24300
F1242       F  0.96248822  0.82361098  0.66457264    -0.18300
F1243       F  0.92414312  0.80352491  0.47183969    -0.20700
F1244       F  0.89713367  0.79030317  0.46948171    -0.21900
F1245       F  0.92083082  0.77608228  0.50188231    -0.19100
F1246       F  0.87739905  0.81892167  0.68744308    -0.19200
F1247       F  0.88381921  0.84491094  0.65238046    -0.23000
F1248       F  0.90495918  0.83095386  0.69414350    -0.24600
C1249       C  0.65925633  0.72683555  0.25790728    -0.11400
C1250       C  0.66189675  0.74449598  0.24252380     0.11200
C1251       C  0.66558370  0.75847775  0.27355197    -0.03200
C1252       C  0.66688727  0.75415282  0.31951681    -0.06000
C1253       C  0.66325560  0.73667552  0.33588072    -0.16700
C1254       C  0.65965572  0.72257986  0.30432857     0.02200
C1255       C  0.65888761  0.74851048  0.19425853     0.12100
C1256       C  0.66683582  0.77810643  0.25861604     0.62700
H1257       H  0.66978493  0.76480460  0.34335296     0.12200
C1258       C  0.65608884  0.70319864  0.31874172     0.54900
H1259       H  0.65612867  0.71654420  0.23314255     0.07900
C1260       C  0.67274386  0.74745895  0.16165079    -0.05900
C1261       C  0.66946115  0.75439366  0.11822887    -0.06600
C1262       C  0.65293706  0.76256119  0.10697267    -0.16200
C1263       C  0.63860481  0.76238088  0.13944996    -0.01800
C1264       C  0.64193083  0.75499287  0.18229703    -0.09300
C1265       C  0.69097285  0.73944744  0.17317619     0.65000
H1266       H  0.68005681  0.75388663  0.09308297     0.10400
C1267       C  0.62008741  0.77051936  0.13088125     0.63300
H1268       H  0.63156256  0.75511703  0.20816541     0.07800
F1269       F  0.65517042  0.69164600  0.28202810    -0.19700
F1270       F  0.63980857  0.70210405  0.34149605    -0.15900
F1271       F  0.66985176  0.69722362  0.34640026    -0.19400
F1272       F  0.65003602  0.78399378  0.24498126    -0.22800
F1273       F  0.67881976  0.77994594  0.22303561    -0.24300
F1274       F  0.67261576  0.78923533  0.29325218    -0.18300
F1275       F  0.60874388  0.76880652  0.16792891    -0.20700
F1276       F  0.61185875  0.76187310  0.09497970    -0.21900
F1277       F  0.62179185  0.78873736  0.12187850    -0.19100
F1278       F  0.70248629  0.73940562  0.13623792    -0.19200
F1279       F  0.68879665  0.72182532  0.18757207    -0.23000
F1280       F  0.69899591  0.74933866  0.20726444    -0.24600
C1281       C  0.67216196  0.80341448  0.76089371    -0.11400
C1282       C  0.67279521  0.78545038  0.74658092     0.11200
C1283       C  0.67604863  0.77157534  0.77822800    -0.03200
C1284       C  0.67675946  0.77606834  0.82423134    -0.06000
C1285       C  0.67380739  0.79381310  0.83966743    -0.16700
C1286       C  0.67262702  0.80798344  0.80712930     0.02200
C1287       C  0.66851953  0.78128825  0.69887153     0.12100
C1288       C  0.67804860  0.75201538  0.76355311     0.62700
H1289       H  0.67875035  0.76541981  0.84874097     0.12200
C1290       C  0.67110915  0.82771476  0.82020587     0.54900
H1291       H  0.67024594  0.81375153  0.73544982     0.07900
C1292       C  0.65048517  0.77907944  0.68453269    -0.05900
C1293       C  0.64729438  0.77269932  0.64063891    -0.06600
C1294       C  0.66147434  0.76868439  0.61081162    -0.16200
C1295       C  0.67954684  0.77177895  0.62454618    -0.01800
C1296       C  0.68271480  0.77824323  0.66856715    -0.09300
C1297       C  0.63470250  0.78330298  0.71563904     0.65000
H1298       H  0.63358615  0.77053827  0.62934174     0.10400
C1299       C  0.69543985  0.76716069  0.59439383     0.63300
H1300       H  0.69635307  0.78028441  0.68048181     0.07800
F1301       F  0.65493244  0.83060102  0.84216253    -0.19700
F1302       F  0.67165154  0.83897907  0.78282219    -0.15900
F1303       F  0.68529723  0.83248732  0.84801690    -0.19400
F1304       F  0.69251156  0.75040521  0.73429321    -0.22800
F1305       F  0.66257390  0.74628591  0.74189175    -0.24300
F1306       F  0.68104216  0.74063961  0.79992392    -0.18300
F1307       F  0.69524737  0.77781530  0.55600209    -0.20700
F1308       F  0.69445460  0.74920583  0.58234356    -0.21900
F1309       F  0.71175818  0.76989715  0.61595412    -0.19100
F1310       F  0.61831950  0.77946086  0.69549925    -0.19200
F1311       F  0.63489777  0.80143504  0.72652365    -0.23000
F1312       F  0.63585163  0.77323552  0.75491247    -0.24600
C1313       C  0.85208260  0.80588541  0.26679926    -0.11400
C1314       C  0.84655993  0.78874462  0.28097716     0.11200
C1315       C  0.83972764  0.77622383  0.24944709    -0.03200
C1316       C  0.84081272  0.78054415  0.20339234    -0.06000
C1317       C  0.84821484  0.79699398  0.18843484    -0.16700
C1318       C  0.85301809  0.81037206  0.22067983     0.02200
C1319       C  0.85032812  0.78341908  0.32797646     0.12100
C1320       C  0.83181038  0.75825355  0.26446838     0.62700
H1321       H  0.83637686  0.77079574  0.17850504     0.12200
C1322       C  0.86002658  0.82884972  0.20711274     0.54900
H1323       H  0.85671974  0.81530830  0.29223800     0.07900
C1324       C  0.86743196  0.77667270  0.34015655    -0.05900
C1325       C  0.86999686  0.77070650  0.38452729    -0.06600
C1326       C  0.85604249  0.77103495  0.41672494    -0.16200
C1327       C  0.83898466  0.77824627  0.40456883    -0.01800
C1328       C  0.83653169  0.78454924  0.36013225    -0.09300
C1329       C  0.88286349  0.77558216  0.30626409     0.65000
H1330       H  0.88303599  0.76548611  0.39432254     0.10400
C1331       C  0.82317807  0.77846361  0.43704909     0.63300
H1332       H  0.82366324  0.78996092  0.34958966     0.07800
F1333       F  0.87534264  0.82697514  0.18096534    -0.19700
F1334       F  0.86447145  0.83927314  0.24430813    -0.15900
F1335       F  0.84696776  0.83800795  0.18303732    -0.19400
F1336       F  0.81720623  0.76127293  0.29258222    -0.22800
F1337       F  0.84456319  0.74831454  0.28760519    -0.24300
F1338       F  0.82594897  0.74806239  0.22812635    -0.18300
F1339       F  0.82701242  0.78958755  0.47329461    -0.20700
F1340       F  0.81982919  0.76110249  0.45195444    -0.21900
F1341       F  0.80760382  0.78480861  0.41688358    -0.19100
F1342       F  0.89806531  0.76775752  0.32486241    -0.19200
F1343       F  0.88746312  0.79272037  0.29178901    -0.23000
F1344       F  0.87781820  0.76532288  0.26936724    -0.24600
C1345       C  0.85288800  0.74246176  0.86594100    -0.11400
C1346       C  0.85092433  0.75493804  0.83064173     0.11200
C1347       C  0.84992862  0.77364325  0.83988245    -0.03200
C1348       C  0.85188890  0.77934508  0.88469608    -0.06000
C1349       C  0.85493662  0.76695171  0.91948772    -0.16700
C1350       C  0.85530516  0.74827572  0.91064238     0.02200
C1351       C  0.85111756  0.74823041  0.78387864     0.12100
C1352       C  0.84737618  0.78749540  0.80249109     0.62700
H1353       H  0.85173725  0.79360112  0.89282937     0.12200
C1354       C  0.85931612  0.73484137  0.94788915     0.54900
H1355       H  0.85342754  0.72822725  0.85779640     0.07900
C1356       C  0.86748157  0.74462433  0.76099246    -0.05900
C1357       C  0.86677380  0.74045787  0.71482003    -0.06600
C1358       C  0.85034207  0.73975642  0.69166337    -0.16200
C1359       C  0.83392059  0.74189885  0.71555981    -0.01800
C1360       C  0.83464857  0.74638958  0.76149463    -0.09300
C1361       C  0.88556104  0.74560638  0.78493912     0.65000
H1362       H  0.87912455  0.73836647  0.69594478     0.10400
C1363       C  0.81541681  0.73945963  0.69490701     0.63300
H1364       H  0.82223950  0.74873263  0.78004376     0.07800
F1365       F  0.87628122  0.73826690  0.96505820    -0.19700
F1366       F  0.85895462  0.71723648  0.93233104    -0.15900
F1367       F  0.84669002  0.73648035  0.98213502    -0.19400
F1368       F  0.83103444  0.78465956  0.78133156    -0.22800
F1369       F  0.86109212  0.78604314  0.77096345    -0.24300
F1370       F  0.84749497  0.80496137  0.81907434    -0.18300
F1371       F  0.80529288  0.72797838  0.72182709    -0.20700
F1372       F  0.81602481  0.73205591  0.65209293    -0.21900
F1373       F  0.80688046  0.75600872  0.69299963    -0.19100
F1374       F  0.89978639  0.74241286  0.75563051    -0.19200
F1375       F  0.88618816  0.73277320  0.81884561    -0.23000
F1376       F  0.88797695  0.76251310  0.80370948    -0.24600
C1377       C  0.73740620  0.80711955  0.05303745    -0.11400
C1378       C  0.74763578  0.81691037  0.02147669     0.11200
C1379       C  0.73909659  0.82502398  0.98383072    -0.03200
C1380       C  0.72041600  0.82269266  0.97861270    -0.06000
C1381       C  0.71044111  0.81191789  0.00859672    -0.16700
C1382       C  0.71884136  0.80433827  0.04701066     0.02200
C1383       C  0.76748943  0.81601254  0.02525438     0.12100
C1384       C  0.74978988  0.83527293  0.94818253     0.62700
H1385       H  0.71363417  0.82829147  0.94939176     0.12200
C1386       C  0.70834942  0.79293022  0.08059002     0.54900
H1387       H  0.74431055  0.80077175  0.08107809     0.07900
C1388       C  0.77744419  0.82695153  0.05543127    -0.05900
C1389       C  0.79618458  0.82433965  0.05840713    -0.06600
C1390       C  0.80488839  0.81080976  0.03341783    -0.16200
C1391       C  0.79491661  0.80007363  0.00277664    -0.01800
C1392       C  0.77628533  0.80285052  0.99944140    -0.09300
C1393       C  0.76824798  0.84079021  0.08540214     0.65000
H1394       H  0.80410482  0.83233061  0.08174045     0.10400
C1395       C  0.80387308  0.78594562  0.97323097     0.63300
H1396       H  0.76827364  0.79448478  0.97714453     0.07800
F1397       F  0.71848282  0.78886168  0.11849541    -0.19700
F1398       F  0.70334339  0.77691713  0.06032262    -0.15900
F1399       F  0.69309977  0.80208571  0.09463804    -0.19400
F1400       F  0.76102152  0.82355112  0.92524248    -0.22800
F1401       F  0.76009524  0.84855024  0.96833796    -0.24300
F1402       F  0.73864412  0.84346714  0.91683677    -0.18300
F1403       F  0.80988043  0.77183538  0.99973878    -0.20700
F1404       F  0.81825522  0.79357901  0.95028281    -0.21900
F1405       F  0.79210851  0.77896549  0.94142894    -0.19100
F1406       F  0.78060502  0.85102661  0.10929175    -0.19200
F1407       F  0.75717761  0.83210176  0.11618211    -0.23000
F1408       F  0.75798798  0.85238587  0.05949765    -0.24600
C1409       C  0.87363573  0.87566361  0.90607158    -0.11400
C1410       C  0.88635759  0.87090314  0.87315186     0.11200
C1411       C  0.89080904  0.85255165  0.86635073    -0.03200
C1412       C  0.88357884  0.83966747  0.89596159    -0.06000
C1413       C  0.87252711  0.84456591  0.93269137    -0.16700
C1414       C  0.86627669  0.86268706  0.93573522     0.02200
C1415       C  0.89711085  0.88522727  0.85109734     0.12100
C1416       C  0.90410528  0.84667929  0.82984950     0.62700
H1417       H  0.88777541  0.82576460  0.89252017     0.12200
C1418       C  0.85222459  0.86858987  0.97011933     0.54900
H1419       H  0.87028818  0.88979426  0.91003751     0.07900
C1420       C  0.89289067  0.89208105  0.80794824    -0.05900
C1421       C  0.90656931  0.90088955  0.78332914    -0.06600
C1422       C  0.92403776  0.90319124  0.80121807    -0.16200
C1423       C  0.92719003  0.89865591  0.84731686    -0.01800
C1424       C  0.91353013  0.88969407  0.87140734    -0.09300
C1425       C  0.87407764  0.89010203  0.78844489     0.65000
H1426       H  0.90391548  0.90512283  0.74894011     0.10400
C1427       C  0.94506168  0.90205503  0.87082583     0.63300
H1428       H  0.91616683  0.88463215  0.90515303     0.07800
F1429       F  0.84512805  0.88530445  0.95929092    -0.19700
F1430       F  0.85981791  0.86985038  0.01264377    -0.15900
F1431       F  0.83813513  0.85633795  0.97104633    -0.19400
F1432       F  0.92093466  0.85390092  0.83838024    -0.22800
F1433       F  0.89836118  0.85246822  0.78788742    -0.24300
F1434       F  0.90585247  0.82810170  0.82800718    -0.18300
F1435       F  0.94336763  0.90080429  0.91739266    -0.20700
F1436       F  0.95131133  0.91920459  0.86085133    -0.21900
F1437       F  0.95755533  0.88936206  0.85706453    -0.19100
F1438       F  0.87303295  0.89699845  0.74499436    -0.19200
F1439       F  0.86204165  0.89941378  0.81546133    -0.23000
F1440       F  0.86894001  0.87218271  0.78698863    -0.24600
C1441       C  0.93517860  0.85999438  0.07884138    -0.11400
C1442       C  0.94059622  0.85699102  0.12357485     0.11200
C1443       C  0.93083481  0.84474634  0.15115200    -0.03200
C1444       C  0.91642519  0.83508339  0.13199203    -0.06000
C1445       C  0.91129739  0.83770208  0.08688971    -0.16700
C1446       C  0.92048391  0.85068262  0.05995552     0.02200
C1447       C  0.95628201  0.86729427  0.14094408     0.12100
C1448       C  0.93553585  0.84204165  0.20064370     0.62700
H1449       H  0.90907348  0.82529319  0.15205233     0.12200
C1450       C  0.91422325  0.85544583  0.01250583     0.54900
H1451       H  0.94254028  0.86984588  0.05894886     0.07900
C1452       C  0.97424222  0.86169279  0.13281569    -0.05900
C1453       C  0.98842943  0.87210394  0.15056456    -0.06600
C1454       C  0.98509696  0.88782054  0.17554258    -0.16200
C1455       C  0.96717058  0.89322994  0.18437386    -0.01800
C1456       C  0.95298431  0.88300567  0.16602276    -0.09300
C1457       C  0.97836600  0.84493122  0.10515177     0.65000
H1458       H  0.00229613  0.86820034  0.14459193     0.10400
C1459       C  0.96312266  0.90923293  0.21469447     0.63300
H1460       H  0.93913703  0.88704662  0.17158928     0.07800
F1461       F  0.91610904  0.84079745  0.98401960    -0.19700
F1462       F  0.92400570  0.86962143  0.99420999    -0.15900
F1463       F  0.89635326  0.86057433  0.01400038    -0.19400
F1464       F  0.93321863  0.85804479  0.22387701    -0.22800
F1465       F  0.95325045  0.83657628  0.20469443    -0.24300
F1466       F  0.92469569  0.82911157  0.22086749    -0.18300
F1467       F  0.96936126  0.92493147  0.19478844    -0.20700
F1468       F  0.97151710  0.90690366  0.25602803    -0.21900
F1469       F  0.94482172  0.91111601  0.22253921    -0.19100
F1470       F  0.99663996  0.84121089  0.10415853    -0.19200
F1471       F  0.97262286  0.84739064  0.06114339    -0.23000
F1472       F  0.96962409  0.83012856  0.12342015    -0.24600
C1473       C  0.55490585  0.86195097  0.83125239    -0.11400
C1474       C  0.55998791  0.86248678  0.87665278     0.11200
C1475       C  0.54993235  0.87285825  0.90797355    -0.03200
C1476       C  0.53432191  0.88168958  0.89277179    -0.06000
C1477       C  0.52862861  0.88035751  0.84764440    -0.16700
C1478       C  0.53926298  0.87056583  0.81599951     0.02200
C1479       C  0.57599405  0.85194821  0.89007659     0.12100
C1480       C  0.55566630  0.87455325  0.95706714     0.62700
H1481       H  0.52626388  0.88950528  0.91622895     0.12200
C1482       C  0.53438500  0.86918397  0.76627608     0.54900
H1483       H  0.56319553  0.85430375  0.80795770     0.07900
C1484       C  0.57515298  0.83305602  0.89674932    -0.05900
C1485       C  0.59073812  0.82407547  0.91114965    -0.06600
C1486       C  0.60697237  0.83333203  0.91844023    -0.16200
C1487       C  0.60793243  0.85217862  0.91023591    -0.01800
C1488       C  0.59235825  0.86110943  0.89532446    -0.09300
C1489       C  0.55786995  0.82246728  0.88912765     0.65000
H1490       H  0.59032264  0.80968980  0.91763661     0.10400
C1491       C  0.62484709  0.86306154  0.91970325     0.63300
H1492       H  0.59265001  0.87548234  0.88871198     0.07800
F1493       F  0.54803000  0.86138956  0.74096527    -0.19700
F1494       F  0.53125692  0.88618955  0.74874225    -0.15900
F1495       F  0.51918461  0.85856658  0.76156629    -0.19400
F1496       F  0.57215367  0.88319726  0.95948200    -0.22800
F1497       F  0.55709828  0.85763265  0.97642638    -0.24300
F1498       F  0.54341299  0.88443019  0.98222894    -0.18300
F1499       F  0.62232892  0.88130640  0.91187772    -0.20700
F1500       F  0.63871431  0.85731561  0.89205689    -0.21900
F1501       F  0.62971796  0.86095035  0.96445780    -0.19100
F1502       F  0.55982153  0.80442888  0.90028695    -0.19200
F1503       F  0.55302334  0.82340706  0.84408700    -0.23000
F1504       F  0.54414374  0.82950311  0.91540437    -0.24600
C1505       C  0.43323072  0.20265987  0.66345534    -0.11400
C1506       C  0.41892977  0.19926475  0.63392558     0.11200
C1507       C  0.41518332  0.18138941  0.62020581    -0.03200
C1508       C  0.42529811  0.16725177  0.63914107    -0.06000
C1509       C  0.43920183  0.17046931  0.67043712    -0.16700
C1510       C  0.44347243  0.18860412  0.68234688     0.02200
C1511       C  0.40822577  0.21488839  0.61789998     0.12100
C1512       C  0.40049412  0.17730736  0.58599965     0.62700
H1513       H  0.42226567  0.15346049  0.62985571     0.12200
C1514       C  0.45821327  0.19332827  0.71596820     0.54900
H1515       H  0.43604810  0.21656317  0.67223811     0.07900
C1516       C  0.39420615  0.22245716  0.64435236    -0.05900
C1517       C  0.38487378  0.23750966  0.62739150    -0.06600
C1518       C  0.38977444  0.24561100  0.58626108    -0.16200
C1519       C  0.40399434  0.23818913  0.56012651    -0.01800
C1520       C  0.41295626  0.22281906  0.57649409    -0.09300
C1521       C  0.38961478  0.21508291  0.69096321     0.65000
H1522       H  0.37410902  0.24355154  0.64700416     0.10400
C1523       C  0.40950898  0.24624068  0.51488114     0.63300
H1524       H  0.42398253  0.21698218  0.55743691     0.07800
F1525       F  0.45502966  0.18462411  0.75662752    -0.19700
F1526       F  0.45894956  0.21166309  0.72470220    -0.15900
F1527       F  0.47481263  0.18825935  0.69885348    -0.19400
F1528       F  0.40423129  0.18601658  0.54567577    -0.22800
F1529       F  0.38403354  0.18317370  0.60220801    -0.24300
F1530       F  0.39913818  0.15901783  0.57711713    -0.18300
F1531       F  0.42206423  0.23561941  0.49273175    -0.20700
F1532       F  0.41710155  0.26307105  0.52136495    -0.21900
F1533       F  0.39458700  0.24781813  0.48723257    -0.19100
F1534       F  0.37491035  0.22377345  0.70983925    -0.19200
F1535       F  0.40412965  0.21748448  0.71955332    -0.23000
F1536       F  0.38562716  0.19689572  0.68832902    -0.24600
C1537       C  0.41858478  0.14575622  0.90587706    -0.11400
C1538       C  0.40011817  0.14521437  0.89606735     0.11200
C1539       C  0.39427755  0.13744299  0.85480753    -0.03200
C1540       C  0.40730573  0.13187544  0.82319432    -0.06000
C1541       C  0.42580097  0.13335649  0.83220674    -0.16700
C1542       C  0.43155181  0.13937352  0.87531451     0.02200
C1543       C  0.38825361  0.15651625  0.92476219     0.12100
C1544       C  0.37462440  0.13552644  0.84167692     0.62700
H1545       H  0.40297215  0.12701363  0.79037884     0.12200
C1546       C  0.45121540  0.13909638  0.88938133     0.54900
H1547       H  0.42294962  0.15236709  0.93661668     0.07900
C1548       C  0.38562140  0.15323260  0.97153049    -0.05900
C1549       C  0.37823947  0.16707375  0.99824273    -0.06600
C1550       C  0.37314378  0.18362335  0.97917656    -0.16200
C1551       C  0.37333652  0.18576935  0.93162846    -0.01800
C1552       C  0.38132738  0.17228584  0.90527655    -0.09300
C1553       C  0.39056127  0.13531134  0.99304194     0.65000
H1554       H  0.37746958  0.16549214  0.03465168     0.10400
C1555       C  0.36519281  0.20164951  0.90675730     0.63300
H1556       H  0.38278900  0.17440552  0.86913981     0.07800
F1557       F  0.45313936  0.14186712  0.93544736    -0.19700
F1558       F  0.46068071  0.15251692  0.86714999    -0.15900
F1559       F  0.45860893  0.12246357  0.87929077    -0.19400
F1560       F  0.37082441  0.14741903  0.80692173    -0.22800
F1561       F  0.36297316  0.13882837  0.87728539    -0.24300
F1562       F  0.37145751  0.11812237  0.82678491    -0.18300
F1563       F  0.37826927  0.20978734  0.88034497    -0.20700
F1564       F  0.35775769  0.21435924  0.93534578    -0.21900
F1565       F  0.35169284  0.19543173  0.87860820    -0.19100
F1566       F  0.38401056  0.13399789  0.03683037    -0.19200
F1567       F  0.40903934  0.13328333  0.99459848    -0.23000
F1568       F  0.38320650  0.12135964  0.96809586    -0.24600
C1569       C  0.44210010  0.03101534  0.73478930    -0.11400
C1570       C  0.45379951  0.02321825  0.76631871     0.11200
C1571       C  0.46598795  0.03423130  0.79053930    -0.03200
C1572       C  0.46629638  0.05281997  0.78156169    -0.06000
C1573       C  0.45529554  0.06069920  0.74826270    -0.16700
C1574       C  0.44252560  0.04967354  0.72524607     0.02200
C1575       C  0.45422097  0.00329198  0.77091417     0.12100
C1576       C  0.47924100  0.02625384  0.82423093     0.62700
H1577       H  0.47579328  0.06129447  0.79946603     0.12200
C1578       C  0.42978173  0.05721701  0.68985504     0.54900
H1579       H  0.43296954  0.02218830  0.71675104     0.07900
C1580       C  0.44337975  0.99390979  0.80243017    -0.05900
C1581       C  0.44719922  0.97562362  0.81119962    -0.06600
C1582       C  0.46104689  0.96639911  0.78811748    -0.16200
C1583       C  0.47026947  0.97546187  0.75223015    -0.01800
C1584       C  0.46680093  0.99386176  0.74488894    -0.09300
C1585       C  0.42779366  0.00321998  0.82608685     0.65000
H1586       H  0.43961467  0.96855718  0.83706466     0.10400
C1587       C  0.48399719  0.96620322  0.72200527     0.63300
H1588       H  0.47451252  0.00133109  0.71992569     0.07800
F1589       F  0.41903773  0.04391745  0.67103756    -0.19700
F1590       F  0.43951787  0.06517885  0.65518167    -0.15900
F1591       F  0.41852204  0.06983090  0.70956799    -0.19400
F1592       F  0.49122312  0.01509777  0.80190247    -0.22800
F1593       F  0.47016435  0.01635515  0.85674533    -0.24300
F1594       F  0.48908234  0.03948368  0.84616944    -0.18300
F1595       F  0.48820646  0.97650638  0.68430751    -0.20700
F1596       F  0.47719311  0.94992492  0.70670625    -0.21900
F1597       F  0.49972235  0.96342053  0.74595037    -0.19100
F1598       F  0.41901102  0.99178985  0.85595740    -0.19200
F1599       F  0.41547280  0.00890523  0.79412050    -0.23000
F1600       F  0.43386067  0.01802781  0.85003487    -0.24600
C1601       C  0.60875407  0.80921288  0.39786264    -0.11400
C1602       C  0.59979695  0.81876121  0.43206304     0.11200
C1603       C  0.60064785  0.81260685  0.47727353    -0.03200
C1604       C  0.61110551  0.79726725  0.48694845    -0.06000
C1605       C  0.62066077  0.78799155  0.45298394    -0.16700
C1606       C  0.61941609  0.79401445  0.40748934     0.02200
C1607       C  0.58935865  0.83498787  0.41887455     0.12100
C1608       C  0.59046263  0.82213889  0.51494694     0.62700
H1609       H  0.61203391  0.79246594  0.52147321     0.12200
C1610       C  0.62924112  0.78459831  0.36916189     0.54900
H1611       H  0.60756841  0.81405945  0.36341990     0.07900
C1612       C  0.59781337  0.85182498  0.41056170    -0.05900
C1613       C  0.58726182  0.86625376  0.39484925    -0.06600
C1614       C  0.56886509  0.86409747  0.38563265    -0.16200
C1615       C  0.56034196  0.84735499  0.39471364    -0.01800
C1616       C  0.57081007  0.83303057  0.41139880    -0.09300
C1617       C  0.61797148  0.85437465  0.41680859     0.65000
H1618       H  0.59351923  0.87911805  0.38717202     0.10400
C1619       C  0.54034017  0.84459323  0.38677895     0.63300
H1620       H  0.56471347  0.81994738  0.41732450     0.07800
F1621       F  0.64754477  0.78741881  0.37376453    -0.19700
F1622       F  0.62414055  0.79115632  0.32724406    -0.15900
F1623       F  0.62557786  0.76628973  0.37002152    -0.19400
F1624       F  0.57215440  0.82127722  0.50676981    -0.22800
F1625       F  0.59566199  0.84002968  0.51716169    -0.24300
F1626       F  0.59366430  0.81433979  0.55672477    -0.18300
F1627       F  0.53689623  0.84414267  0.34086979    -0.20700
F1628       F  0.53074037  0.85853374  0.40642685    -0.21900
F1629       F  0.53426822  0.82855056  0.40544682    -0.19100
F1630       F  0.62328230  0.87195408  0.40805959    -0.19200
F1631       F  0.62727477  0.84321030  0.38755268    -0.23000
F1632       F  0.62273704  0.85025423  0.46076032    -0.24600
C1633       C  0.59563815  0.89014540  0.15154473    -0.11400
C1634       C  0.61006130  0.88040951  0.16984233     0.11200
C1635       C  0.61433067  0.88211542  0.21617028    -0.03200
C1636       C  0.60209623  0.89117176  0.24437589    -0.06000
C1637       C  0.58621193  0.89866302  0.22683401    -0.16700
C1638       C  0.58382971  0.89980041  0.17947659     0.02200
C1639       C  0.61868414  0.86659143  0.14131279     0.12100
C1640       C  0.63120886  0.87362771  0.23571504     0.62700
H1641       H  0.60404962  0.89099558  0.28067619     0.12200
C1642       C  0.56878528  0.91048608  0.15746534     0.54900
H1643       H  0.59303605  0.88939191  0.11551397     0.07900
C1644       C  0.61070448  0.84937680  0.13640025    -0.05900
C1645       C  0.61885292  0.83701913  0.10717663    -0.06600
C1646       C  0.63466528  0.84121428  0.08300467    -0.16200
C1647       C  0.64324934  0.85810822  0.09017954    -0.01800
C1648       C  0.63483060  0.87070398  0.11889119    -0.09300
C1649       C  0.59343099  0.84415316  0.16119119     0.65000
H1650       H  0.61236600  0.82412766  0.10161193     0.10400
C1651       C  0.66134557  0.86273085  0.06904150     0.63300
H1652       H  0.64067986  0.88395450  0.12377062     0.07800
F1653       F  0.55592050  0.89876686  0.14071874    -0.19700
F1654       F  0.57574147  0.92057256  0.12206811    -0.15900
F1655       F  0.56064866  0.92236868  0.18725285    -0.19400
F1656       F  0.64619580  0.88054485  0.21383377    -0.22800
F1657       F  0.63080499  0.85512299  0.22996340    -0.24300
F1658       F  0.63294920  0.87718990  0.28145561    -0.18300
F1659       F  0.65940050  0.86577571  0.02320712    -0.20700
F1660       F  0.67330209  0.84869522  0.07588368    -0.21900
F1661       F  0.66873817  0.87811683  0.08803444    -0.19100
F1662       F  0.58862446  0.82637626  0.15323225    -0.19200
F1663       F  0.57938915  0.85496756  0.14699731    -0.23000
F1664       F  0.59565030  0.84618743  0.20731141    -0.24600
C1665       C  0.49828721  0.90835890  0.11000348    -0.11400
C1666       C  0.49737802  0.92639934  0.09659395     0.11200
C1667       C  0.50047134  0.94034340  0.12792595    -0.03200
C1668       C  0.50642819  0.93561644  0.17129050    -0.06000
C1669       C  0.50845846  0.91743754  0.18444735    -0.16700
C1670       C  0.50345860  0.90346907  0.15379528     0.02200
C1671       C  0.49270380  0.92985438  0.04920139     0.12100
C1672       C  0.49712097  0.95997101  0.11577960     0.62700
H1673       H  0.50962937  0.94621312  0.19513626     0.12200
C1674       C  0.50318712  0.88353336  0.16638013     0.54900
H1675       H  0.49511136  0.89807598  0.08522102     0.07900
C1676       C  0.50591386  0.92909337  0.01478831    -0.05900
C1677       C  0.50017663  0.92915095  0.96972980    -0.06600
C1678       C  0.48177081  0.92895617  0.95852637    -0.16200
C1679       C  0.46858335  0.93023597  0.99325595    -0.01800
C1680       C  0.47440819  0.93083403  0.03829553    -0.09300
C1681       C  0.52584844  0.92701993  0.02564493     0.65000
H1682       H  0.51008391  0.92801023  0.94291935     0.10400
C1683       C  0.44849521  0.93042628  0.98351359     0.63300
H1684       H  0.46466376  0.93094075  0.06565911     0.07800
F1685       F  0.49533283  0.87306094  0.13301405    -0.19700
F1686       F  0.49326124  0.88099778  0.20558476    -0.15900
F1687       F  0.52058217  0.87734026  0.17242899    -0.19400
F1688       F  0.47930690  0.96216354  0.10340121    -0.22800
F1689       F  0.50802765  0.96512870  0.08009534    -0.24300
F1690       F  0.50054890  0.97137642  0.15182266    -0.18300
F1691       F  0.44290989  0.91342596  0.97024939    -0.20700
F1692       F  0.44476205  0.94278057  0.94972121    -0.21900
F1693       F  0.43856562  0.93522448  0.02134094    -0.19100
F1694       F  0.53643176  0.92742346  0.98700725    -0.19200
F1695       F  0.52874957  0.91072872  0.04718915    -0.23000
F1696       F  0.53149668  0.94082065  0.05360379    -0.24600
C1697       C  0.51001779  0.93276313  0.52545518    -0.11400
C1698       C  0.52298637  0.92453714  0.55277984     0.11200
C1699       C  0.53904259  0.91767806  0.53380707    -0.03200
C1700       C  0.54160262  0.91942654  0.48714856    -0.06000
C1701       C  0.52819678  0.92674408  0.45920868    -0.16700
C1702       C  0.51215863  0.93378326  0.47849437     0.02200
C1703       C  0.51760211  0.92028870  0.59925779     0.12100
C1704       C  0.55296169  0.90781322  0.56222898     0.62700
H1705       H  0.55366521  0.91395741  0.47171344     0.12200
C1706       C  0.49697758  0.94160375  0.45026422     0.54900
H1707       H  0.49759304  0.93727848  0.54108442     0.07900
C1708       C  0.51877066  0.93293115  0.63459521    -0.05900
C1709       C  0.51212556  0.92792645  0.67718932    -0.06600
C1710       C  0.50346702  0.91122458  0.68447045    -0.16200
C1711       C  0.50232994  0.89861451  0.64835151    -0.01800
C1712       C  0.50946521  0.90351615  0.60627287    -0.09300
C1713       C  0.52640341  0.95172946  0.62682437     0.65000
H1714       H  0.51319465  0.93734895  0.70487946     0.10400
C1715       C  0.49376810  0.88010310  0.65321912     0.63300
H1716       H  0.50842078  0.89441034  0.57773302     0.07800
F1717       F  0.48456099  0.95074026  0.47671002    -0.19700
F1718       F  0.48800882  0.92784908  0.42813005    -0.15900
F1719       F  0.50375552  0.95367591  0.41895608    -0.19400
F1720       F  0.54538897  0.89255410  0.58136841    -0.22800
F1721       F  0.55914223  0.91894834  0.59625698    -0.24300
F1722       F  0.56765208  0.90242409  0.53664703    -0.18300
F1723       F  0.49614275  0.86960057  0.61494748    -0.20700
F1724       F  0.47552104  0.88195229  0.66005105    -0.21900
F1725       F  0.50131309  0.87100397  0.68920376    -0.19100
F1726       F  0.52674737  0.96176924  0.66626680    -0.19200
F1727       F  0.51591443  0.96083346  0.59572888    -0.23000
F1728       F  0.54381079  0.95063010  0.61042164    -0.24600
C1729       C  0.46537027  0.17977816  0.22634693    -0.11400
C1730       C  0.45375250  0.17313810  0.19303068     0.11200
C1731       C  0.45659247  0.15580068  0.17452647    -0.03200
C1732       C  0.47130385  0.14568053  0.18992914    -0.06000
C1733       C  0.48377643  0.15269175  0.22097532    -0.16700
C1734       C  0.48033561  0.16974860  0.24120815     0.02200
C1735       C  0.43917884  0.18490760  0.17615752     0.12100
C1736       C  0.44469636  0.14840958  0.13696998     0.62700
H1737       H  0.47356350  0.13238113  0.17633808     0.12200
C1738       C  0.49172053  0.17703823  0.27969364     0.54900
H1739       H  0.46273070  0.19305303  0.24011442     0.07900
C1740       C  0.42167136  0.18460545  0.19491878    -0.05900
C1741       C  0.40782507  0.19364945  0.17186305    -0.06600
C1742       C  0.41129812  0.20397490  0.13285001    -0.16200
C1743       C  0.42936306  0.20572683  0.11694149    -0.01800
C1744       C  0.44293447  0.19580566  0.13867891    -0.09300
C1745       C  0.41783534  0.17509537  0.23945337     0.65000
H1746       H  0.39414228  0.19276016  0.18432040     0.10400
C1747       C  0.43444070  0.21740341  0.07648798     0.63300
H1748       H  0.45664377  0.19610280  0.12602213     0.07800
F1749       F  0.48405771  0.19218646  0.29917501    -0.19700
F1750       F  0.50856864  0.18183917  0.26400364    -0.15900
F1751       F  0.49341064  0.16404104  0.31301734    -0.19400
F1752       F  0.44699747  0.15870807  0.09835876    -0.22800
F1753       F  0.42677268  0.14889601  0.14962378    -0.24300
F1754       F  0.44887984  0.13070464  0.12655680    -0.18300
F1755       F  0.43090604  0.23532481  0.08601669    -0.20700
F1756       F  0.42476662  0.21206478  0.03887522    -0.21900
F1757       F  0.45257160  0.21610362  0.06585569    -0.19100
F1758       F  0.39986110  0.17635853  0.25167020    -0.19200
F1759       F  0.42802191  0.18296289  0.27322639    -0.23000
F1760       F  0.42222961  0.15702608  0.23657286    -0.24600
C1761       C  0.50444132  0.11327699  0.01727933    -0.11400
C1762       C  0.51715516  0.10543938  0.98853895     0.11200
C1763       C  0.53325840  0.09831685  0.00642639    -0.03200
C1764       C  0.53564918  0.09850128  0.05363618    -0.06000
C1765       C  0.52276837  0.10617791  0.08300942    -0.16700
C1766       C  0.50688358  0.11387857  0.06424302     0.02200
C1767       C  0.51342305  0.10634725  0.93953147     0.12100
C1768       C  0.54802430  0.09115547  0.97569116     0.62700
H1769       H  0.54786331  0.09293377  0.06785178     0.12200
C1770       C  0.49262159  0.12308730  0.09280555     0.54900
H1771       H  0.49249933  0.11908300  0.00214212     0.07900
C1772       C  0.50099328  0.09452113  0.91845916    -0.05900
C1773       C  0.49588677  0.09805373  0.87357963    -0.06600
C1774       C  0.50244518  0.11318062  0.85035579    -0.16200
C1775       C  0.51508997  0.12476885  0.87106405    -0.01800
C1776       C  0.52041461  0.12112393  0.91562028    -0.09300
C1777       C  0.49280399  0.07859672  0.94364263     0.65000
H1778       H  0.48606203  0.08952899  0.85691866     0.10400
C1779       C  0.52296842  0.14076549  0.84588205     0.63300
H1780       H  0.52957624  0.13018071  0.93285961     0.07800
F1781       F  0.47936605  0.13105291  0.06670599    -0.19700
F1782       F  0.50047351  0.13653646  0.11855156    -0.15900
F1783       F  0.48438039  0.11042917  0.12037621    -0.19400
F1784       F  0.55469723  0.10501869  0.94915177    -0.22800
F1785       F  0.54126245  0.07777680  0.94796064    -0.24300
F1786       F  0.56221589  0.08398086  0.00005963    -0.18300
F1787       F  0.50944752  0.15265359  0.83398680    -0.20700
F1788       F  0.53154986  0.13465068  0.80730602    -0.21900
F1789       F  0.53542676  0.15006662  0.87173648    -0.19100
F1790       F  0.48120790  0.06877116  0.91651356    -0.19200
F1791       F  0.48311428  0.08455770  0.98069573    -0.23000
F1792       F  0.50630425  0.06718953  0.95819213    -0.24600
C1793       C  0.50664155  0.10789191  0.44466185    -0.11400
C1794       C  0.48865197  0.10212478  0.44557658     0.11200
C1795       C  0.47937224  0.09910135  0.40448028    -0.03200
C1796       C  0.48870789  0.10177888  0.36341722    -0.06000
C1797       C  0.50667280  0.10779996  0.36264833    -0.16700
C1798       C  0.51592962  0.11058394  0.40381421     0.02200
C1799       C  0.47986624  0.10063889  0.49055149     0.12100
C1800       C  0.45966851  0.09351044  0.40405236     0.62700
H1801       H  0.48182594  0.09990465  0.33149063     0.12200
C1802       C  0.53561159  0.11606367  0.40467902     0.54900
H1803       H  0.51330230  0.11055453  0.47654828     0.07900
C1804       C  0.48414127  0.08662027  0.52117826    -0.05900
C1805       C  0.47807716  0.08800326  0.56608136    -0.06600
C1806       C  0.46800014  0.10288523  0.58121842    -0.16200
C1807       C  0.46248949  0.11617628  0.54942422    -0.01800
C1808       C  0.46888773  0.11492375  0.50471071    -0.09300
C1809       C  0.49541371  0.07049286  0.50684404     0.65000
H1810       H  0.48185539  0.07774735  0.59036566     0.10400
C1811       C  0.45062586  0.13203749  0.56247224     0.63300
H1812       H  0.46606120  0.12559283  0.48073422     0.07800
F1813       F  0.54276750  0.11486356  0.44777141    -0.19700
F1814       F  0.53741175  0.13369830  0.39011362    -0.15900
F1815       F  0.54545025  0.10478734  0.37673119    -0.19400
F1816       F  0.44913915  0.10719462  0.42159402    -0.22800
F1817       F  0.45724969  0.07812830  0.42984981    -0.24300
F1818       F  0.45368307  0.08990644  0.36067426    -0.18300
F1819       F  0.45904938  0.14228948  0.59526027    -0.20700
F1820       F  0.43427175  0.12574276  0.57865072    -0.21900
F1821       F  0.44708504  0.14320480  0.52600936    -0.19100
F1822       F  0.49681773  0.05782267  0.54109928    -0.19200
F1823       F  0.51263844  0.07596585  0.49540640    -0.23000
F1824       F  0.48757401  0.06220432  0.46993338    -0.24600
C1825       C  0.54400930  0.00157613  0.30321739    -0.11400
C1826       C  0.55559407  0.00474576  0.26674867     0.11200
C1827       C  0.56605964  0.99053372  0.24884890    -0.03200
C1828       C  0.56323525  0.97298090  0.26579750    -0.06000
C1829       C  0.55038411  0.96950833  0.29983818    -0.16700
C1830       C  0.54098649  0.98416814  0.31995542     0.02200
C1831       C  0.55532731  0.02311215  0.24734013     0.12100
C1832       C  0.58008133  0.99397155  0.21237734     0.62700
H1833       H  0.57063316  0.96175342  0.25153046     0.12200
C1834       C  0.52755749  0.98170896  0.35835011     0.54900
H1835       H  0.53653351  0.01288828  0.31686472     0.07900
C1836       C  0.54083323  0.02878984  0.21987371    -0.05900
C1837       C  0.53882543  0.04726985  0.21123784    -0.06600
C1838       C  0.55075622  0.06016494  0.22910171    -0.16200
C1839       C  0.56613213  0.05425683  0.25370567    -0.01800
C1840       C  0.56794876  0.03570182  0.26288563    -0.09300
C1841       C  0.52715966  0.01543814  0.20107475     0.65000
H1842       H  0.52747113  0.05184558  0.19139976     0.10400
C1843       C  0.58024832  0.06727953  0.27168510     0.63300
H1844       H  0.57882538  0.03089408  0.28402386     0.07800
F1845       F  0.51197854  0.97382898  0.34200835    -0.19700
F1846       F  0.52283378  0.99800354  0.37791697    -0.15900
F1847       F  0.53497220  0.97101028  0.39180866    -0.19400
F1848       F  0.59323667  0.00538839  0.22899477    -0.22800
F1849       F  0.57220166  0.00189557  0.17503062    -0.24300
F1850       F  0.58831770  0.97816670  0.19848193    -0.18300
F1851       F  0.59348647  0.05850169  0.29615242    -0.20700
F1852       F  0.57224646  0.07982203  0.29991656    -0.21900
F1853       F  0.58861624  0.07601078  0.23595556    -0.19100
F1854       F  0.51512420  0.02366489  0.17194543    -0.19200
F1855       F  0.51737100  0.00771399  0.23591397    -0.23000
F1856       F  0.53590996  0.00198940  0.17732845    -0.24600
C1857       C  0.92499843  0.70046940  0.16351649    -0.11400
C1858       C  0.93141172  0.70648828  0.12149466     0.11200
C1859       C  0.94638754  0.69781802  0.10118821    -0.03200
C1860       C  0.95365992  0.68244635  0.12255366    -0.06000
C1861       C  0.94687385  0.67617608  0.16407193    -0.16700
C1862       C  0.93261883  0.68553016  0.18550285     0.02200
C1863       C  0.92184207  0.72192220  0.10030526     0.12100
C1864       C  0.95490694  0.70506469  0.05807891     0.62700
H1865       H  0.96477244  0.67525636  0.10716317     0.12200
C1866       C  0.92580035  0.67998274  0.23190006     0.54900
H1867       H  0.91385444  0.70763615  0.17892669     0.07900
C1868       C  0.90536642  0.71941727  0.07720570    -0.05900
C1869       C  0.89551953  0.73470175  0.06391520    -0.06600
C1870       C  0.90162977  0.75236559  0.07240072    -0.16200
C1871       C  0.91835003  0.75483810  0.09497847    -0.01800
C1872       C  0.92812690  0.73946110  0.10868675    -0.09300
C1873       C  0.89797529  0.70064311  0.06769295     0.65000
H1874       H  0.88266521  0.73289351  0.04739328     0.10400
C1875       C  0.92548451  0.77348287  0.10667548     0.63300
H1876       H  0.94059818  0.74096821  0.12724286     0.07800
F1877       F  0.91216584  0.69116684  0.24720407    -0.19700
F1878       F  0.93977962  0.68076834  0.26267130    -0.15900
F1879       F  0.91911680  0.66259791  0.23016280    -0.19400
F1880       F  0.96149817  0.72224473  0.06575039    -0.22800
F1881       F  0.94231064  0.70577434  0.02380778    -0.24300
F1882       F  0.96908276  0.69438266  0.04359531    -0.18300
F1883       F  0.94078883  0.77262402  0.13324615    -0.20700
F1884       F  0.91253344  0.78301860  0.13041192    -0.21900
F1885       F  0.92992956  0.78270718  0.06751501    -0.19100
F1886       F  0.88250631  0.70122300  0.04166107    -0.19200
F1887       F  0.89381895  0.69205652  0.10791255    -0.23000
F1888       F  0.91062387  0.69053378  0.04457182    -0.24600
C1889       C  0.92166653  0.65290022  0.38910206    -0.11400
C1890       C  0.90390901  0.65269042  0.37322218     0.11200
C1891       C  0.89961322  0.64318832  0.33328878    -0.03200
C1892       C  0.91373094  0.63565698  0.30773164    -0.06000
C1893       C  0.93178190  0.63779432  0.32087145    -0.16700
C1894       C  0.93577874  0.64541254  0.36370520     0.02200
C1895       C  0.89077437  0.66443991  0.39651100     0.12100
C1896       C  0.88026663  0.64150211  0.31749886     0.62700
H1897       H  0.91086482  0.62940880  0.27542952     0.12200
C1898       C  0.95483438  0.64614072  0.38224296     0.54900
H1899       H  0.92455608  0.65996075  0.42035341     0.07900
C1900       C  0.88331820  0.66021866  0.43939422    -0.05900
C1901       C  0.87494862  0.67403571  0.46419481    -0.06600
C1902       C  0.87376280  0.69164899  0.44712951    -0.16200
C1903       C  0.87926988  0.69525622  0.40218498    -0.01800
C1904       C  0.88825253  0.68170244  0.37811298    -0.09300
C1905       C  0.88453936  0.64178374  0.46143223     0.65000
H1906       H  0.87056799  0.67134481  0.49859232     0.10400
C1907       C  0.87666810  0.71342741  0.37954974     0.63300
H1908       H  0.89399747  0.68482028  0.34522833     0.07800
F1909       F  0.96345693  0.62988102  0.37464990    -0.19700
F1910       F  0.95485203  0.64926611  0.42841890    -0.15900
F1911       F  0.96438375  0.65991622  0.36164649    -0.19400
F1912       F  0.87351198  0.65832318  0.30669972    -0.22800
F1913       F  0.86987985  0.63401394  0.35162447    -0.24300
F1914       F  0.87883346  0.63059869  0.27969053    -0.18300
F1915       F  0.89256543  0.72315689  0.38129186    -0.20700
F1916       F  0.86306419  0.72322656  0.39996529    -0.21900
F1917       F  0.87190623  0.71101222  0.33471664    -0.19100
F1918       F  0.86741214  0.63607071  0.47331043    -0.19200
F1919       F  0.89489250  0.64302576  0.50010807    -0.23000
F1920       F  0.89200244  0.62883641  0.43351801    -0.24600
C1921       C  0.95074841  0.50005754  0.26789568    -0.11400
C1922       C  0.96645913  0.51053250  0.27129930     0.11200
C1923       C  0.98261496  0.50241904  0.28629359    -0.03200
C1924       C  0.98259555  0.48384602  0.29611704    -0.06000
C1925       C  0.96696241  0.47314123  0.29228706    -0.16700
C1926       C  0.95065694  0.48142510  0.27814047     0.02200
C1927       C  0.96572071  0.53002196  0.25895700     0.12100
C1928       C  0.99978826  0.51339264  0.29225447     0.62700
H1929       H  0.99491026  0.47754407  0.30763311     0.12200
C1930       C  0.93335553  0.47071492  0.27265722     0.54900
H1931       H  0.93851632  0.50666990  0.25692571     0.07900
C1932       C  0.96784967  0.53597701  0.21367363    -0.05900
C1933       C  0.96873625  0.55465411  0.20499620    -0.06600
C1934       C  0.96745983  0.56735152  0.23996011    -0.16200
C1935       C  0.96431006  0.56146004  0.28480791    -0.01800
C1936       C  0.96347706  0.54277790  0.29361952    -0.09300
C1937       C  0.96922551  0.52265095  0.17480869     0.65000
H1938       H  0.97078355  0.55951743  0.17084528     0.10400
C1939       C  0.96156598  0.57493196  0.32278724     0.63300
H1940       H  0.96143666  0.53793647  0.32783330     0.07800
F1941       F  0.93631204  0.45617951  0.24429991    -0.19700
F1942       F  0.91971929  0.48104378  0.25409400    -0.15900
F1943       F  0.92748876  0.46461819  0.31439778    -0.19400
F1944       F  0.99716176  0.52641855  0.32503174    -0.22800
F1945       F  0.00444905  0.52172115  0.25202779    -0.24300
F1946       F  0.01414836  0.50274845  0.30552049    -0.18300
F1947       F  0.95826462  0.56647473  0.36376134    -0.20700
F1948       F  0.94700476  0.58584703  0.31289111    -0.21900
F1949       F  0.97673540  0.58556312  0.32751811    -0.19100
F1950       F  0.97200247  0.53126752  0.13379222    -0.19200
F1951       F  0.95342320  0.51283120  0.17184530    -0.23000
F1952       F  0.98342289  0.51093679  0.18175610    -0.24600
C1953       C  0.03856186  0.35553681  0.39465366    -0.11400
C1954       C  0.05577914  0.36287463  0.38739850     0.11200
C1955       C  0.05766518  0.37923385  0.36306439    -0.03200
C1956       C  0.04202443  0.38831423  0.34900888    -0.06000
C1957       C  0.02481177  0.38103385  0.35632442    -0.16700
C1958       C  0.02293817  0.36425645  0.37883346     0.02200
C1959       C  0.07167292  0.35286221  0.40455416     0.12100
C1960       C  0.07611386  0.38671427  0.35070000     0.62700
H1961       H  0.04310968  0.40098384  0.33088951     0.12200
C1962       C  0.00455902  0.35574080  0.38639066     0.54900
H1963       H  0.03751611  0.34280458  0.41248589     0.07900
C1964       C  0.07844826  0.35565066  0.44871538    -0.05900
C1965       C  0.09407191  0.34634393  0.46182841    -0.06600
C1966       C  0.10268765  0.33406008  0.43282238    -0.16200
C1967       C  0.09532320  0.33049900  0.38965928    -0.01800
C1968       C  0.07992616  0.34016407  0.37601808    -0.09300
C1969       C  0.06894461  0.36798486  0.48220463     0.65000
H1970       H  0.09969377  0.34851606  0.49518380     0.10400
C1971       C  0.10324096  0.31608169  0.35913115     0.63300
H1972       H  0.07417661  0.33792199  0.34285546     0.07800
F1973       F  0.99344225  0.36769852  0.40899641    -0.19700
F1974       F  0.00565367  0.34009400  0.41185049    -0.15900
F1975       F  0.99694258  0.35138277  0.34519411    -0.19400
F1976       F  0.08519676  0.37440246  0.32399803    -0.22800
F1977       F  0.08607619  0.38996131  0.38924979    -0.24300
F1978       F  0.07486208  0.40272827  0.32678121    -0.18300
F1979       F  0.09275184  0.31327601  0.32111919    -0.20700
F1980       F  0.10434413  0.29991941  0.38244355    -0.21900
F1981       F  0.12027355  0.32118533  0.34501468    -0.19100
F1982       F  0.07794098  0.36885614  0.52313140    -0.19200
F1983       F  0.05174568  0.36156394  0.49044001    -0.23000
F1984       F  0.06779251  0.38528629  0.46507020    -0.24600
C1985       C  0.94232391  0.70865340  0.63905280    -0.11400
C1986       C  0.94422185  0.69004214  0.63220262     0.11200
C1987       C  0.93083445  0.68046382  0.60803487    -0.03200
C1988       C  0.91596594  0.69001383  0.59100734    -0.06000
C1989       C  0.91421595  0.70875928  0.59668523    -0.16700
C1990       C  0.92765639  0.71833463  0.62108594     0.02200
C1991       C  0.96018404  0.68080122  0.65166333     0.12100
C1992       C  0.93236269  0.66027787  0.59977892     0.62700
H1993       H  0.90568421  0.68289438  0.57213789     0.12200
C1994       C  0.92656990  0.73857424  0.62869621     0.54900
H1995       H  0.95265361  0.71558163  0.65818621     0.07900
C1996       C  0.97712355  0.68065447  0.62946553    -0.05900
C1997       C  0.99121072  0.67043438  0.64831342    -0.06600
C1998       C  0.98883024  0.66065074  0.68851895    -0.16200
C1999       C  0.97222990  0.66173180  0.71214814    -0.01800
C2000       C  0.95813441  0.67187260  0.69318913    -0.09300
C2001       C  0.98031452  0.69137267  0.58638881     0.65000
H2002       H  0.00417341  0.66978247  0.63145353     0.10400
C2003       C  0.96941825  0.65231523  0.75720445     0.63300
H2004       H  0.94518479  0.67256854  0.71009629     0.07800
F2005       F  0.92910857  0.74753501  0.58812278    -0.19700
F2006       F  0.93963656  0.74454675  0.65851812    -0.15900
F2007       F  0.90992481  0.74305753  0.64654074    -0.19400
F2008       F  0.93262349  0.65114254  0.64053499    -0.22800
F2009       F  0.94803863  0.65657220  0.57622994    -0.24300
F2010       F  0.91802638  0.65372147  0.57481911    -0.18300
F2011       F  0.95348021  0.65753322  0.77780038    -0.20700
F2012       F  0.98340756  0.65641896  0.78629026    -0.21900
F2013       F  0.96876293  0.63390561  0.75047965    -0.19100
F2014       F  0.99748259  0.68869155  0.56925257    -0.19200
F2015       F  0.97832090  0.70956640  0.59525109    -0.23000
F2016       F  0.96807722  0.68631367  0.55358783    -0.24600
C2017       C  0.01296649  0.60937545  0.50454065    -0.11400
C2018       C  0.02855552  0.61083434  0.47816539     0.11200
C2019       C  0.04565520  0.61087134  0.49862214    -0.03200
C2020       C  0.04656267  0.61057799  0.54597709    -0.06000
C2021       C  0.03090946  0.61027059  0.57311052    -0.16700
C2022       C  0.01372465  0.60883147  0.55190851     0.02200
C2023       C  0.02613020  0.61349177  0.42929332     0.12100
C2024       C  0.06275009  0.61120945  0.47035530     0.62700
H2025       H  0.05963257  0.61115801  0.56204099     0.12200
C2026       C  0.99616106  0.60669051  0.57811176     0.54900
H2027       H  0.00007538  0.60916996  0.48741650     0.07900
C2028       C  0.02082513  0.59932739  0.40008857    -0.05900
C2029       C  0.01440865  0.60382279  0.35705511    -0.06600
C2030       C  0.01287389  0.62183906  0.34334348    -0.16200
C2031       C  0.01995905  0.63578621  0.37049639    -0.01800
C2032       C  0.02629298  0.63136583  0.41367926    -0.09300
C2033       C  0.02120173  0.57945998  0.41262140     0.65000
H2034       H  0.00985228  0.59318928  0.33467410     0.10400
C2035       C  0.02097601  0.65512987  0.35373868     0.63300
H2036       H  0.03053984  0.64196935  0.43652770     0.07800
F2037       F  0.99769475  0.59277296  0.60907894    -0.19700
F2038       F  0.98185751  0.60254978  0.54994063    -0.15900
F2039       F  0.99200720  0.62259346  0.60023176    -0.19400
F2040       F  0.06384207  0.62722632  0.44652268    -0.22800
F2041       F  0.06259114  0.59696039  0.44017806    -0.24300
F2042       F  0.07803146  0.60968909  0.49682213    -0.18300
F2043       F  0.00391667  0.66252294  0.35213724    -0.20700
F2044       F  0.02856868  0.65556251  0.31092264    -0.21900
F2045       F  0.03148227  0.66574425  0.38176197    -0.19100
F2046       F  0.03191678  0.57033302  0.38190468    -0.19200
F2047       F  0.00390607  0.57252317  0.41057581    -0.23000
F2048       F  0.02795353  0.57623998  0.45538025    -0.24600
C2049       C  0.99653322  0.59941403  0.00990412    -0.11400
C2050       C  0.98789782  0.61207735  0.98268064     0.11200
C2051       C  0.97365581  0.62257182  0.00006058    -0.03200
C2052       C  0.96979629  0.62138572  0.04645040    -0.06000
C2053       C  0.97971106  0.60997797  0.07524614    -0.16700
C2054       C  0.99280092  0.59809786  0.05621770     0.02200
C2055       C  0.99494653  0.61463430  0.93665560     0.12100
C2056       C  0.96278218  0.63497768  0.96967809     0.62700
H2057       H  0.95951124  0.63001990  0.06077233     0.12200
C2058       C  0.00342275  0.58446917  0.08388281     0.54900
H2059       H  0.00706152  0.59126467  0.99482257     0.07900
C2060       C  0.00962787  0.62632820  0.92811846    -0.05900
C2061       C  0.01572797  0.62811761  0.88352191    -0.06600
C2062       C  0.00820001  0.61799665  0.84809552    -0.16200
C2063       C  0.99435984  0.60525746  0.85750577    -0.01800
C2064       C  0.98771723  0.60410155  0.90192910    -0.09300
C2065       C  0.01898589  0.63659919  0.96600102     0.65000
H2066       H  0.02670795  0.63730915  0.87603993     0.10400
C2067       C  0.98664248  0.59286220  0.82151985     0.63300
H2068       H  0.97699769  0.59472792  0.91029607     0.07800
F2069       F  0.01613408  0.59330285  0.10991392    -0.19700
F2070       F  0.01248984  0.57229546  0.05660646    -0.15900
F2071       F  0.99191074  0.57466328  0.11136867    -0.19400
F2072       F  0.95450684  0.62489963  0.93630283    -0.22800
F2073       F  0.97389915  0.64764496  0.94953188    -0.24300
F2074       F  0.94953691  0.64408003  0.99350298    -0.18300
F2075       F  0.99980678  0.58099683  0.80702497    -0.20700
F2076       F  0.98052944  0.60284653  0.78524559    -0.21900
F2077       F  0.97229729  0.58276892  0.83776061    -0.19100
F2078       F  0.03296791  0.64723002  0.94991379    -0.19200
F2079       F  0.02611338  0.62457752  0.99690086    -0.23000
F2080       F  0.00685985  0.64771150  0.98792583    -0.24600
C2081       C  0.00926792  0.43295887  0.02413072    -0.11400
C2082       C  0.02425663  0.42992786  0.05173729     0.11200
C2083       C  0.04132667  0.42699194  0.03167774    -0.03200
C2084       C  0.04263651  0.42653942  0.98430242    -0.06000
C2085       C  0.02753801  0.42894689  0.95627205    -0.16700
C2086       C  0.01047952  0.43262401  0.97666292     0.02200
C2087       C  0.02059019  0.42637434  0.10021188     0.12100
C2088       C  0.05840398  0.42358177  0.05843380     0.62700
H2089       H  0.05566034  0.42379493  0.96913504     0.12200
C2090       C  0.99339921  0.43583710  0.94940708     0.54900
H2091       H  0.99628205  0.43465725  0.04039588     0.07900
C2092       C  0.01644571  0.44023485  0.13141500    -0.05900
C2093       C  0.01042332  0.43535095  0.17494316    -0.06600
C2094       C  0.00855048  0.41717273  0.18760360    -0.16200
C2095       C  0.01414808  0.40340753  0.15752564    -0.01800
C2096       C  0.01990200  0.40829229  0.11394479    -0.09300
C2097       C  0.01850483  0.45997810  0.11874563     0.65000
H2098       H  0.00645707  0.44568785  0.19885526     0.10400
C2099       C  0.01439746  0.38369716  0.17150594     0.63300
H2100       H  0.02341517  0.39795812  0.08958244     0.07800
F2101       F  0.99633902  0.44923420  0.91762066    -0.19700
F2102       F  0.97917443  0.44132452  0.97648591    -0.15900
F2103       F  0.98820777  0.42005369  0.92811097    -0.19400
F2104       F  0.06354493  0.40580462  0.05270960    -0.22800
F2105       F  0.05641435  0.42693382  0.10415954    -0.24300
F2106       F  0.07201688  0.43467926  0.04243121    -0.18300
F2107       F  0.99700782  0.37720812  0.17532773    -0.20700
F2108       F  0.02308403  0.38189513  0.21261247    -0.21900
F2109       F  0.02341373  0.37313913  0.14018577    -0.19100
F2110       F  0.01507908  0.47122922  0.15513346    -0.19200
F2111       F  0.00664691  0.46436839  0.08452217    -0.23000
F2112       F  0.03593617  0.46317920  0.10408808    -0.24600
C2113       C  0.98903872  0.44592253  0.52186112    -0.11400
C2114       C  0.98041810  0.43348111  0.55019867     0.11200
C2115       C  0.96620307  0.42276908  0.53348893    -0.03200
C2116       C  0.96337316  0.42235189  0.48658933    -0.06000
C2117       C  0.97381161  0.43299989  0.45694539    -0.16700
C2118       C  0.98555257  0.44628655  0.47523703     0.02200
C2119       C  0.98813550  0.43019765  0.59530939     0.12100
C2120       C  0.95442246  0.41170354  0.56520810     0.62700
H2121       H  0.95359172  0.41302127  0.47277514     0.12200
C2122       C  0.99446046  0.46075065  0.44635416     0.54900
H2123       H  0.99930531  0.45462826  0.53609613     0.07900
C2124       C  0.00173907  0.41709965  0.60128855    -0.05900
C2125       C  0.00832214  0.41411282  0.64493321    -0.06600
C2126       C  0.00212327  0.42399099  0.68234108    -0.16200
C2127       C  0.98844925  0.43718870  0.67618190    -0.01800
C2128       C  0.98175935  0.44011987  0.63226393    -0.09300
C2129       C  0.00936202  0.40640108  0.56163714     0.65000
H2130       H  0.01853601  0.40398987  0.65012382     0.10400
C2131       C  0.98037368  0.44762030  0.71551802     0.63300
H2132       H  0.97138257  0.45008940  0.62631380     0.07800
F2133       F  0.00886032  0.45355299  0.42278220    -0.19700
F2134       F  0.00085544  0.47481381  0.47264352    -0.15900
F2135       F  0.98209761  0.46787392  0.41627196    -0.19400
F2136       F  0.94647990  0.42303336  0.59658107    -0.22800
F2137       F  0.96460581  0.39898972  0.58781325    -0.24300
F2138       F  0.94084967  0.40279159  0.54219911    -0.18300
F2139       F  0.99308449  0.45924149  0.73340940    -0.20700
F2140       F  0.97455714  0.43572949  0.74861213    -0.21900
F2141       F  0.96570870  0.45784777  0.70228631    -0.19100
F2142       F  0.02254220  0.39438237  0.57516385    -0.19200
F2143       F  0.01697654  0.41804036  0.53039248    -0.23000
F2144       F  0.99586314  0.39659513  0.54090914    -0.24600
C2145       C  0.06266139  0.54166334  0.77526260    -0.11400
C2146       C  0.05026027  0.52946271  0.75702730     0.11200
C2147       C  0.03749905  0.53540644  0.72493505    -0.03200
C2148       C  0.03731229  0.55372922  0.71298019    -0.06000
C2149       C  0.04937308  0.56626350  0.73207809    -0.16700
C2150       C  0.06269840  0.56000387  0.76284905     0.02200
C2151       C  0.05016963  0.51068524  0.77403492     0.12100
C2152       C  0.02385054  0.52251313  0.70423412     0.62700
H2153       H  0.02737781  0.55846858  0.68902016     0.12200
C2154       C  0.07689620  0.57238779  0.78271824     0.54900
H2155       H  0.07222571  0.53664530  0.79981962     0.07900
C2156       C  0.06175389  0.49729043  0.75648990    -0.05900
C2157       C  0.05911375  0.47930341  0.77019053    -0.06600
C2158       C  0.04559614  0.47454848  0.80148596    -0.16200
C2159       C  0.03513497  0.48837833  0.82212142    -0.01800
C2160       C  0.03761878  0.50624916  0.80762838    -0.09300
C2161       C  0.07681693  0.50204980  0.72370615     0.65000
H2162       H  0.06737252  0.46874722  0.75569518     0.10400
C2163       C  0.02140297  0.48458782  0.85924793     0.63300
H2164       H  0.02930377  0.51693877  0.82135046     0.07800
F2165       F  0.08799202  0.56349154  0.81295867    -0.19700
F2166       F  0.06878119  0.58650750  0.80553343    -0.15900
F2167       F  0.08761152  0.57897687  0.74813694    -0.19400
F2168       F  0.01222504  0.51626021  0.73734706    -0.22800
F2169       F  0.03260299  0.50800738  0.68475990    -0.24300
F2170       F  0.01365442  0.53077354  0.67100897    -0.18300
F2171       F  0.01589782  0.50027734  0.88055088    -0.20700
F2172       F  0.02884367  0.47348930  0.89187576    -0.21900
F2173       F  0.00630737  0.47643950  0.84099344    -0.19100
F2174       F  0.08606877  0.48689506  0.70931159    -0.19200
F2175       F  0.08896695  0.51341288  0.74476217    -0.23000
F2176       F  0.06991634  0.51062775  0.68602350    -0.24600
C2177       C  0.08999162  0.35222298  0.91472949    -0.11400
C2178       C  0.08979201  0.33647022  0.88867897     0.11200
C2179       C  0.07910814  0.33553287  0.84939588    -0.03200
C2180       C  0.06956855  0.35095206  0.83609832    -0.06000
C2181       C  0.06989553  0.36710193  0.86141283    -0.16700
C2182       C  0.08013493  0.36764332  0.90216811     0.02200
C2183       C  0.10001477  0.32070172  0.90517810     0.12100
C2184       C  0.07744373  0.31816535  0.82229327     0.62700
H2185       H  0.06159711  0.35031801  0.80556512     0.12200
C2186       C  0.08072957  0.38408464  0.93286309     0.54900
H2187       H  0.09797498  0.35222938  0.94534166     0.07900
C2188       C  0.11855250  0.31845008  0.89609070    -0.05900
C2189       C  0.12722263  0.30309582  0.91327052    -0.06600
C2190       C  0.11803909  0.29009210  0.93956393    -0.16200
C2191       C  0.09927008  0.29248723  0.94834959    -0.01800
C2192       C  0.09073822  0.30793994  0.93116537    -0.09300
C2193       C  0.12916661  0.33234042  0.86901076     0.65000
H2194       H  0.14147371  0.30137196  0.90679013     0.10400
C2195       C  0.08796366  0.27906237  0.97521496     0.63300
H2196       H  0.07658686  0.31031618  0.93791862     0.07800
F2197       F  0.08864409  0.39842942  0.91033674    -0.19700
F2198       F  0.09065825  0.38095748  0.97166866    -0.15900
F2199       F  0.06343928  0.38861060  0.94620408    -0.19400
F2200       F  0.06924767  0.30504008  0.84850245    -0.22800
F2201       F  0.09427290  0.31214321  0.80916240    -0.24300
F2202       F  0.06719950  0.32048629  0.78366823    -0.18300
F2203       F  0.09341884  0.27885689  0.01982751    -0.20700
F2204       F  0.08967530  0.26201231  0.95694215    -0.21900
F2205       F  0.06982423  0.28340791  0.97472083    -0.19100
F2206       F  0.14696474  0.32725705  0.86309036    -0.19200
F2207       F  0.12898451  0.34871141  0.89134502    -0.23000
F2208       F  0.12161175  0.33453891  0.82669803    -0.24600
C2209       C  0.13092362  0.38167111  0.59485155    -0.11400
C2210       C  0.12023798  0.37617971  0.63150666     0.11200
C2211       C  0.11888150  0.35765946  0.64255881    -0.03200
C2212       C  0.12860052  0.34520650  0.61663820    -0.06000
C2213       C  0.13827139  0.35032315  0.57757356    -0.16700
C2214       C  0.13982702  0.36904894  0.56695087     0.02200
C2215       C  0.10887251  0.38964957  0.65497484     0.12100
C2216       C  0.10602711  0.35083624  0.67914593     0.62700
H2217       H  0.12743773  0.33104206  0.62499660     0.12200
C2218       C  0.15019499  0.37589918  0.52594186     0.54900
H2219       H  0.13142121  0.39593132  0.58691712     0.07900
C2220       C  0.11346465  0.39665828  0.69776136    -0.05900
C2221       C  0.09968167  0.40418983  0.72457526    -0.06600
C2222       C  0.08187766  0.40567601  0.70839495    -0.16200
C2223       C  0.07860817  0.40222959  0.66182125    -0.01800
C2224       C  0.09202647  0.39356190  0.63635277    -0.09300
C2225       C  0.13278137  0.39609380  0.71449918     0.65000
H2226       H  0.10256724  0.40793285  0.75919178     0.10400
C2227       C  0.06080932  0.40624410  0.63911992     0.63300
H2228       H  0.08903141  0.38880965  0.60252074     0.07800
F2229       F  0.15200191  0.39449369  0.52634998    -0.19700
F2230       F  0.14118143  0.37125463  0.48672275    -0.15900
F2231       F  0.16733247  0.36858310  0.52542394    -0.19400
F2232       F  0.08853275  0.35529149  0.66779048    -0.22800
F2233       F  0.11010072  0.35843706  0.72048646    -0.24300
F2234       F  0.10684445  0.33227846  0.68414957    -0.18300
F2235       F  0.06314922  0.40885891  0.59307068    -0.20700
F2236       F  0.05322002  0.42182013  0.65651890    -0.21900
F2237       F  0.04928398  0.39180995  0.64554745    -0.19100
F2238       F  0.13446355  0.40390200  0.75678691    -0.19200
F2239       F  0.14364048  0.40551799  0.68458001    -0.23000
F2240       F  0.13891702  0.37853912  0.71722548    -0.24600
C2241       C  0.11620263  0.89862608  0.32470731    -0.11400
C2242       C  0.11018814  0.88806110  0.36119635     0.11200
C2243       C  0.09148677  0.88649381  0.37012728    -0.03200
C2244       C  0.07941886  0.89501920  0.34087754    -0.06000
C2245       C  0.08520918  0.90401332  0.30164976    -0.16700
C2246       C  0.10394873  0.90645016  0.29395548     0.02200
C2247       C  0.12330700  0.87726216  0.38747471     0.12100
C2248       C  0.08414330  0.87484322  0.40850433     0.62700
H2249       H  0.06509555  0.89365235  0.34679255     0.12200
C2250       C  0.11101040  0.91632018  0.25256096     0.54900
H2251       H  0.13058259  0.89982996  0.31917371     0.07900
C2252       C  0.12876649  0.85998967  0.37238097    -0.05900
C2253       C  0.13571133  0.84778785  0.40420405    -0.06600
C2254       C  0.13747002  0.85251247  0.44986987    -0.16200
C2255       C  0.13406032  0.87048305  0.46371797    -0.01800
C2256       C  0.12731349  0.88276130  0.43166438    -0.09300
C2257       C  0.12649105  0.85424969  0.32341613     0.65000
H2258       H  0.13872553  0.83404448  0.39431554     0.10400
C2259       C  0.13587770  0.87619408  0.51277170     0.63300
H2260       H  0.12334360  0.89620042  0.44197660     0.07800
F2261       F  0.10498970  0.90786310  0.21373330    -0.19700
F2262       F  0.12965985  0.91661040  0.25121045    -0.15900
F2263       F  0.10503071  0.93397873  0.25309788    -0.19400
F2264       F  0.09006236  0.88131075  0.44967906    -0.22800
F2265       F  0.08986526  0.85723009  0.40312744    -0.24300
F2266       F  0.06548710  0.87470020  0.40959326    -0.18300
F2267       F  0.15334220  0.87335147  0.52722933    -0.20700
F2268       F  0.12412891  0.86627826  0.53934011    -0.21900
F2269       F  0.13191984  0.89428311  0.51874996    -0.19100
F2270       F  0.13239663  0.83677171  0.31625919    -0.19200
F2271       F  0.13646814  0.86556909  0.29580928    -0.23000
F2272       F  0.10855527  0.85512778  0.31107175    -0.24600
C2273       C  0.08144674  0.85372925  0.65291472    -0.11400
C2274       C  0.06549541  0.85331666  0.62766019     0.11200
C2275       C  0.06487231  0.84351327  0.58666183    -0.03200
C2276       C  0.08028272  0.83394193  0.57290846    -0.06000
C2277       C  0.09643685  0.83454108  0.59764826    -0.16700
C2278       C  0.09708293  0.84461723  0.63849770     0.02200
C2279       C  0.05001914  0.86431142  0.64351712     0.12100
C2280       C  0.04817443  0.84360263  0.55695280     0.62700
H2281       H  0.08004533  0.82646608  0.54145695     0.12200
C2282       C  0.11404148  0.84578123  0.66701380     0.54900
H2283       H  0.08163499  0.86167872  0.68363587     0.07900
C2284       C  0.03746281  0.85782623  0.67571914    -0.05900
C2285       C  0.02296174  0.86898719  0.68825953    -0.06600
C2286       C  0.02095894  0.88650770  0.67062369    -0.16200
C2287       C  0.03374910  0.89299943  0.63859939    -0.01800
C2288       C  0.04815115  0.88174945  0.62593072    -0.09300
C2289       C  0.03968766  0.83941995  0.69760144     0.65000
H2290       H  0.01325842  0.86424021  0.71300118     0.10400
C2291       C  0.03198285  0.91136678  0.61647497     0.63300
H2292       H  0.05813471  0.88642428  0.60179845     0.07800
F2293       F  0.11079131  0.85389362  0.70840106    -0.19700
F2294       F  0.12695359  0.85592721  0.64469153    -0.15900
F2295       F  0.12064583  0.82865474  0.67523223    -0.19400
F2296       F  0.04454983  0.86099526  0.54279111    -0.22800
F2297       F  0.03351399  0.83708874  0.58084305    -0.24300
F2298       F  0.05036258  0.83299342  0.51882122    -0.18300
F2299       F  0.04456345  0.91391864  0.58237017    -0.20700
F2300       F  0.03458070  0.92474925  0.64833487    -0.21900
F2301       F  0.01506531  0.91296327  0.59747181    -0.19100
F2302       F  0.02551399  0.83535668  0.72643088    -0.19200
F2303       F  0.05543168  0.83914025  0.72245792    -0.23000
F2304       F  0.04049632  0.82613297  0.66491218    -0.24600
C2305       C  0.08723560  0.73514044  0.59404146    -0.11400
C2306       C  0.09699970  0.71901166  0.59660300     0.11200
C2307       C  0.11511884  0.71848754  0.58190557    -0.03200
C2308       C  0.12338178  0.73468606  0.56843422    -0.06000
C2309       C  0.11388575  0.75106674  0.56758598    -0.16700
C2310       C  0.09535429  0.75131643  0.57950267     0.02200
C2311       C  0.08817400  0.70314609  0.61753999     0.12100
C2312       C  0.12552691  0.70086454  0.57991935     0.62700
H2313       H  0.13739495  0.73467928  0.55807023     0.12200
C2314       C  0.08438405  0.76858681  0.57896081     0.54900
H2315       H  0.07327547  0.73499234  0.60482419     0.07900
C2316       C  0.08843601  0.70052993  0.66492542    -0.05900
C2317       C  0.07997550  0.68516360  0.68286836    -0.06600
C2318       C  0.07097059  0.67268619  0.65517260    -0.16200
C2319       C  0.07025449  0.67561544  0.60778039    -0.01800
C2320       C  0.07904829  0.69087086  0.58969424    -0.09300
C2321       C  0.09723693  0.71415365  0.69644093     0.65000
H2322       H  0.08022216  0.68281785  0.71903799     0.10400
C2323       C  0.05977118  0.66314494  0.57670351     0.63300
H2324       H  0.07883194  0.69342315  0.55361992     0.07800
F2325       F  0.06703297  0.76586051  0.59494549    -0.19700
F2326       F  0.08311827  0.77508714  0.53524752    -0.15900
F2327       F  0.09252998  0.78139031  0.60609860    -0.19400
F2328       F  0.11711790  0.68919500  0.55021251    -0.22800
F2329       F  0.12616274  0.69291496  0.62218402    -0.24300
F2330       F  0.14306478  0.70344167  0.56514042    -0.18300
F2331       F  0.05895068  0.66979387  0.53298287    -0.20700
F2332       F  0.04229754  0.66118656  0.59248189    -0.21900
F2333       F  0.06801354  0.64645956  0.57508917    -0.19100
F2334       F  0.09646397  0.70866079  0.74118295    -0.19200
F2335       F  0.08847162  0.73053524  0.69305241    -0.23000
F2336       F  0.11515858  0.71653055  0.68506938    -0.24600
C2337       C  0.38156791  0.87442215  0.60422827    -0.11400
C2338       C  0.38730825  0.86701283  0.64526125     0.11200
C2339       C  0.38303889  0.84894034  0.65603273    -0.03200
C2340       C  0.37452265  0.83833904  0.62312917    -0.06000
C2341       C  0.37109708  0.84491102  0.57919415    -0.16700
C2342       C  0.37386059  0.86361640  0.57018951     0.02200
C2343       C  0.40041087  0.87732702  0.67264873     0.12100
C2344       C  0.38850179  0.84059060  0.70099409     0.62700
H2345       H  0.37175504  0.82430949  0.63061673     0.12200
C2346       C  0.36993562  0.87212938  0.52450417     0.54900
H2347       H  0.38475359  0.88844517  0.59761207     0.07900
C2348       C  0.41890980  0.87728157  0.66105540    -0.05900
C2349       C  0.43117414  0.88502332  0.69118959    -0.06600
C2350       C  0.42568479  0.89242506  0.73254154    -0.16200
C2351       C  0.40708339  0.89328456  0.74326963    -0.01800
C2352       C  0.39462746  0.88584304  0.71249089    -0.09300
C2353       C  0.42582075  0.86854915  0.61777756     0.65000
H2354       H  0.44520810  0.88475097  0.68362778     0.10400
C2355       C  0.40048832  0.90098190  0.78782619     0.63300
H2356       H  0.38038168  0.88582482  0.72018320     0.07800
F2357       F  0.37287721  0.89058483  0.52473168    -0.19700
F2358       F  0.35208925  0.86926490  0.51320288    -0.15900
F2359       F  0.38106177  0.86475142  0.49180109    -0.19400
F2360       F  0.38037489  0.84982783  0.73611590    -0.22800
F2361       F  0.40700574  0.84144706  0.70608924    -0.24300
F2362       F  0.38340239  0.82265388  0.70412675    -0.18300
F2363       F  0.38196164  0.89960752  0.79225593    -0.20700
F2364       F  0.40511826  0.91901161  0.79072102    -0.21900
F2365       F  0.40822482  0.89171100  0.82329883    -0.19100
F2366       F  0.44442114  0.86923017  0.61455917    -0.19200
F2367       F  0.41883438  0.87746401  0.58073697    -0.23000
F2368       F  0.42072172  0.85060862  0.61625709    -0.24600
C2369       C  0.45369075  0.87324949  0.35059636    -0.11400
C2370       C  0.45648139  0.85610857  0.36883911     0.11200
C2371       C  0.47388844  0.84851829  0.36898357    -0.03200
C2372       C  0.48842615  0.85927165  0.35456751    -0.06000
C2373       C  0.48593933  0.87703531  0.33874103    -0.16700
C2374       C  0.46803925  0.88389438  0.33479364     0.02200
C2375       C  0.44072551  0.84684856  0.38869967     0.12100
C2376       C  0.47694217  0.82904286  0.38304875     0.62700
H2377       H  0.50189086  0.85377644  0.35561899     0.12200
C2378       C  0.46367198  0.90212513  0.31375278     0.54900
H2379       H  0.44003360  0.87838260  0.34991949     0.07900
C2380       C  0.43525785  0.85029758  0.43373685    -0.05900
C2381       C  0.41929558  0.84229932  0.44950990    -0.06600
C2382       C  0.40854981  0.83151935  0.42134031    -0.16200
C2383       C  0.41408055  0.82802001  0.37633033    -0.01800
C2384       C  0.43020594  0.83584816  0.36066353    -0.09300
C2385       C  0.44601742  0.86270043  0.46456938     0.65000
H2386       H  0.41485526  0.84467783  0.48394181     0.10400
C2387       C  0.40319200  0.81591193  0.34535086     0.63300
H2388       H  0.43461250  0.83372391  0.32611776     0.07800
F2389       F  0.44530973  0.90450005  0.30803976    -0.19700
F2390       F  0.47162246  0.90348523  0.27149198    -0.15900
F2391       F  0.46975626  0.91587820  0.34137355    -0.19400
F2392       F  0.46799070  0.81773904  0.35345872    -0.22800
F2393       F  0.47048925  0.82605364  0.42629923    -0.24300
F2394       F  0.49503420  0.82453922  0.38237292    -0.18300
F2395       F  0.41194453  0.81284106  0.30467452    -0.20700
F2396       F  0.38686942  0.82398436  0.33601862    -0.21900
F2397       F  0.40021628  0.79939899  0.36597260    -0.19100
F2398       F  0.43858557  0.86364719  0.50745894    -0.19200
F2399       F  0.44639979  0.87994305  0.44675020    -0.23000
F2400       F  0.46347896  0.85651807  0.46884385    -0.24600
C2401       C  0.23158088  0.82714158  0.49416997    -0.11400
C2402       C  0.24347041  0.81503566  0.51506917     0.11200
C2403       C  0.23674506  0.80216927  0.54630375    -0.03200
C2404       C  0.21803724  0.80105206  0.55328093    -0.06000
C2405       C  0.20607660  0.81273099  0.53128949    -0.16700
C2406       C  0.21283972  0.82621739  0.50184083     0.02200
C2407       C  0.26277567  0.81525558  0.50164559     0.12100
C2408       C  0.24931359  0.78979389  0.57234260     0.62700
H2409       H  0.21253266  0.79100972  0.57614245     0.12200
C2410       C  0.20025383  0.83898815  0.47730486     0.54900
H2411       H  0.23709328  0.83697994  0.47079850     0.07900
C2412       C  0.26909086  0.80480226  0.46492570    -0.05900
C2413       C  0.28775728  0.80353539  0.45764626    -0.06600
C2414       C  0.30019820  0.81312766  0.48419991    -0.16200
C2415       C  0.29368304  0.82505352  0.51817481    -0.01800
C2416       C  0.27498197  0.82556016  0.52694202    -0.09300
C2417       C  0.25611163  0.79519635  0.43333276     0.65000
H2418       H  0.29282044  0.79502647  0.43071591     0.10400
C2419       C  0.30622104  0.83705543  0.54535328     0.63300
H2420       H  0.26968211  0.83389718  0.55392166     0.07800
F2421       F  0.20954291  0.85065302  0.44898533    -0.19700
F2422       F  0.19081470  0.84924047  0.50835528    -0.15900
F2423       F  0.18822505  0.82919357  0.45137345    -0.19400
F2424       F  0.26064562  0.80004568  0.59906754    -0.22800
F2425       F  0.25957533  0.77962150  0.54281532    -0.24300
F2426       F  0.23993165  0.77803600  0.60023404    -0.18300
F2427       F  0.31439847  0.84944564  0.51691751    -0.20700
F2428       F  0.31925471  0.82676608  0.56625366    -0.21900
F2429       F  0.29709645  0.84654498  0.57857984    -0.19100
F2430       F  0.26508431  0.78568619  0.39989776    -0.19200
F2431       F  0.24516305  0.80775908  0.41248671    -0.23000
F2432       F  0.24547777  0.78316966  0.45723729    -0.24600
C2433       C  0.08932208  0.81104215  0.05986165    -0.11400
C2434       C  0.09582257  0.82246068  0.09383990     0.11200
C2435       C  0.11240479  0.81860391  0.11523712    -0.03200
C2436       C  0.12228390  0.80354572  0.10070121    -0.06000
C2437       C  0.11581341  0.79194505  0.06692014    -0.16700
C2438       C  0.09902058  0.79570862  0.04590023     0.02200
C2439       C  0.08439885  0.83767640  0.10890679     0.12100
C2440       C  0.11939226  0.83008405  0.15405768     0.62700
H2441       H  0.13503184  0.80043948  0.11650087     0.12200
C2442       C  0.09144979  0.78392881  0.00840802     0.54900
H2443       H  0.07640271  0.81415559  0.04482903     0.07900
C2444       C  0.08522254  0.85490595  0.08850051    -0.05900
C2445       C  0.07573686  0.86920183  0.10885637    -0.06600
C2446       C  0.06509482  0.86654223  0.14778448    -0.16200
C2447       C  0.06336174  0.84885502  0.16618242    -0.01800
C2448       C  0.07308024  0.83473321  0.14604330    -0.09300
C2449       C  0.09594389  0.85803009  0.04535175     0.65000
H2450       H  0.07663303  0.88264247  0.09460032     0.10400
C2451       C  0.05208691  0.84481220  0.20802787     0.63300
H2452       H  0.07244192  0.82123579  0.16004394     0.07800
F2453       F  0.07613543  0.79134890  0.98935711    -0.19700
F2454       F  0.08684677  0.76717553  0.02556950    -0.15900
F2455       F  0.10412219  0.78193430  0.97438301    -0.19400
F2456       F  0.10767961  0.82892203  0.19038804    -0.22800
F2457       F  0.12081094  0.84790778  0.14075146    -0.24300
F2458       F  0.13621045  0.82448075  0.16847908    -0.18300
F2459       F  0.03409369  0.84801085  0.19905623    -0.20700
F2460       F  0.05771540  0.85551509  0.24359833    -0.21900
F2461       F  0.05362151  0.82699702  0.22158589    -0.19100
F2462       F  0.09517123  0.87584293  0.03136912    -0.19200
F2463       F  0.08901800  0.84737923  0.01116366    -0.23000
F2464       F  0.11382963  0.85359793  0.05189426    -0.24600
C2465       C  0.12541644  0.68469246  0.87609041    -0.11400
C2466       C  0.12340586  0.66761569  0.89563918     0.11200
C2467       C  0.13236196  0.66348582  0.93632740    -0.03200
C2468       C  0.14069827  0.67762601  0.96011450    -0.06000
C2469       C  0.14048761  0.69550333  0.94366859    -0.16700
C2470       C  0.13432630  0.69870777  0.89878775     0.02200
C2471       C  0.11044352  0.65516387  0.87419812     0.12100
C2472       C  0.13214367  0.64449368  0.95538116     0.62700
H2473       H  0.14623500  0.67495066  0.99327832     0.12200
C2474       C  0.13632706  0.71677409  0.87489395     0.54900
H2475       H  0.11903629  0.68726199  0.84377976     0.07900
C2476       C  0.09187112  0.65555868  0.88516172    -0.05900
C2477       C  0.07972707  0.64694675  0.85620538    -0.06600
C2478       C  0.08524304  0.63870531  0.81555818    -0.16200
C2479       C  0.10407538  0.63691443  0.80691898    -0.01800
C2480       C  0.11632218  0.64525898  0.83669511    -0.09300
C2481       C  0.08375019  0.66569873  0.92500351     0.65000
H2482       H  0.06550046  0.64785600  0.86433126     0.10400
C2483       C  0.11150369  0.62692191  0.76618719     0.63300
H2484       H  0.13062519  0.64517528  0.82928388     0.07800
F2485       F  0.12329853  0.72864652  0.89008468    -0.19700
F2486       F  0.13436116  0.71496705  0.82853524    -0.15900
F2487       F  0.15329256  0.72389231  0.88265004    -0.19400
F2488       F  0.13890511  0.63265490  0.92346372    -0.22800
F2489       F  0.11470058  0.63950110  0.96622357    -0.24300
F2490       F  0.14257625  0.64308093  0.99396760    -0.18300
F2491       F  0.10752132  0.63624062  0.72694030    -0.20700
F2492       F  0.10412095  0.60983633  0.76446795    -0.21900
F2493       F  0.13004093  0.62499137  0.76834358    -0.19100
F2494       F  0.07380761  0.65379973  0.95117984    -0.19200
F2495       F  0.07236807  0.67897506  0.90886464    -0.23000
F2496       F  0.09633720  0.67380418  0.95263980    -0.24600
C2497       C  0.08673763  0.69649591  0.16194158    -0.11400
C2498       C  0.07406894  0.68925784  0.13188196     0.11200
C2499       C  0.07608561  0.69215799  0.08486384    -0.03200
C2500       C  0.09110207  0.70195376  0.06938954    -0.06000
C2501       C  0.10425651  0.70872823  0.09913449    -0.16700
C2502       C  0.10210044  0.70589938  0.14646096     0.02200
C2503       C  0.05876612  0.67859563  0.15038458     0.12100
C2504       C  0.06257585  0.68467758  0.05109338     0.62700
H2505       H  0.09287094  0.70405455  0.03339665     0.12200
C2506       C  0.11580319  0.71258500  0.18068780     0.54900
H2507       H  0.08464356  0.69431909  0.19780198     0.07900
C2508       C  0.06065242  0.66027191  0.16307444    -0.05900
C2509       C  0.04520794  0.65059579  0.17658623    -0.06600
C2510       C  0.02823234  0.65884209  0.17895598    -0.16200
C2511       C  0.02647329  0.67734507  0.16732925    -0.01800
C2512       C  0.04190158  0.68694134  0.15359670    -0.09300
C2513       C  0.07892802  0.65109732  0.16282564     0.65000
H2514       H  0.04632923  0.63656981  0.18649175     0.10400
C2515       C  0.00831386  0.68673846  0.16728217     0.63300
H2516       H  0.04091185  0.70105979  0.14446026     0.07800
F2517       F  0.10992271  0.71006500  0.22474018    -0.19700
F2518       F  0.11894184  0.73082903  0.17456052    -0.15900
F2519       F  0.13174077  0.70316651  0.17552135    -0.19400
F2520       F  0.04577207  0.69208574  0.05870924    -0.22800
F2521       F  0.06147175  0.66613211  0.05541802    -0.24300
F2522       F  0.06741258  0.68860634  0.00694959    -0.18300
F2523       F  0.00931390  0.70383996  0.14856250    -0.20700
F2524       F  0.00194142  0.68848688  0.21102640    -0.21900
F2525       F  0.99625481  0.67677900  0.14196596    -0.19100
F2526       F  0.07767471  0.63309152  0.17491185    -0.19200
F2527       F  0.09021776  0.65951839  0.19337916    -0.23000
F2528       F  0.08650274  0.65206995  0.12011542    -0.24600
C2529       C  0.15425496  0.78091279  0.75547428    -0.11400
C2530       C  0.16514615  0.79273069  0.78014441     0.11200
C2531       C  0.17519361  0.80631208  0.75785723    -0.03200
C2532       C  0.17293728  0.80837700  0.71096406    -0.06000
C2533       C  0.16158927  0.79683079  0.68651635    -0.16700
C2534       C  0.15230698  0.78265593  0.70870633     0.02200
C2535       C  0.16501341  0.79039225  0.82954401     0.12100
C2536       C  0.18806578  0.81847569  0.78346240     0.62700
H2537       H  0.18007292  0.81893394  0.69290281     0.12200
C2538       C  0.14013861  0.76964708  0.68351140     0.54900
H2539       H  0.14710787  0.77036122  0.77355025     0.07900
C2540       C  0.14960194  0.79500919  0.85522136    -0.05900
C2541       C  0.14771629  0.78765031  0.89855569    -0.06600
C2542       C  0.16103807  0.77653940  0.91725058    -0.16200
C2543       C  0.17735020  0.77348826  0.89328871    -0.01800
C2544       C  0.17885525  0.78024006  0.84904693    -0.09300
C2545       C  0.13423152  0.80599526  0.83558304     0.65000
H2546       H  0.13544004  0.79005810  0.91755191     0.10400
C2547       C  0.19268512  0.76245586  0.91306901     0.63300
H2548       H  0.19040368  0.77679637  0.82834865     0.07800
F2549       F  0.13106485  0.75809011  0.71256469    -0.19700
F2550       F  0.15040344  0.75923389  0.65455680    -0.15900
F2551       F  0.12741526  0.77917247  0.65919981    -0.19400
F2552       F  0.20155123  0.80822279  0.80278229    -0.22800
F2553       F  0.17889539  0.82759392  0.81714775    -0.24300
F2554       F  0.19611622  0.83108773  0.75530849    -0.18300
F2555       F  0.20663091  0.76017822  0.88241072    -0.20700
F2556       F  0.18652324  0.74553223  0.92551672    -0.21900
F2557       F  0.19962152  0.77118909  0.95052533    -0.19100
F2558       F  0.12424778  0.81411095  0.86954154    -0.19200
F2559       F  0.12298214  0.79481791  0.81105121    -0.23000
F2560       F  0.14069487  0.81951575  0.80759595    -0.24600
C2561       C  0.17295696  0.76814619  0.25307672    -0.11400
C2562       C  0.16835155  0.75369583  0.28123792     0.11200
C2563       C  0.16506685  0.73645596  0.26262939    -0.03200
C2564       C  0.16512422  0.73465465  0.21551594    -0.06000
C2565       C  0.16836741  0.74946620  0.18692149    -0.16700
C2566       C  0.17340919  0.76635185  0.20601186     0.02200
C2567       C  0.16363699  0.75833583  0.32802940     0.12100
C2568       C  0.16090678  0.71974717  0.29048139     0.62700
H2569       H  0.16181124  0.72164027  0.20102731     0.12200
C2570       C  0.17891166  0.78265907  0.17783499     0.54900
H2571       H  0.17511980  0.78126326  0.26831635     0.07900
C2572       C  0.17682491  0.76268397  0.36054712    -0.05900
C2573       C  0.17108538  0.76973773  0.40208438    -0.06600
C2574       C  0.15274370  0.77267003  0.41117919    -0.16200
C2575       C  0.13951154  0.76737692  0.37945297    -0.01800
C2576       C  0.14528257  0.76030429  0.33798733    -0.09300
C2577       C  0.19675602  0.75993643  0.35118584     0.65000
H2578       H  0.18093526  0.77357040  0.42732219     0.10400
C2579       C  0.11947691  0.76891470  0.38935162     0.63300
H2580       H  0.13552723  0.75680420  0.31221900     0.07800
F2581       F  0.18666448  0.79602214  0.20413924    -0.19700
F2582       F  0.16400152  0.78999322  0.15693744    -0.15900
F2583       F  0.19145734  0.77770410  0.14561190    -0.19400
F2584       F  0.14365708  0.71386681  0.28072909    -0.22800
F2585       F  0.16213841  0.72262308  0.33655375    -0.24300
F2586       F  0.17297897  0.70627554  0.27916675    -0.18300
F2587       F  0.11450638  0.78687164  0.39049230    -0.20700
F2588       F  0.11555518  0.76093631  0.43056134    -0.21900
F2589       F  0.10920394  0.76040117  0.35664798    -0.19100
F2590       F  0.20710555  0.76308811  0.38927703    -0.19200
F2591       F  0.20246427  0.77161043  0.31758273    -0.23000
F2592       F  0.19973355  0.74236918  0.33735792    -0.24600
C2593       C  0.44895427  0.83010194  0.92729449    -0.11400
C2594       C  0.43035868  0.82768655  0.92104708     0.11200
C2595       C  0.41999479  0.84174690  0.90195087    -0.03200
C2596       C  0.42889126  0.85723001  0.88621607    -0.06000
C2597       C  0.44764709  0.85923692  0.88932929    -0.16700
C2598       C  0.45785082  0.84583153  0.91205870     0.02200
C2599       C  0.42181380  0.81040303  0.93481488     0.12100
C2600       C  0.39961580  0.84034715  0.89773414     0.62700
H2601       H  0.42121360  0.86771684  0.86992353     0.12200
C2602       C  0.47783027  0.84825584  0.92133629     0.54900
H2603       H  0.45649539  0.81940273  0.94346593     0.07900
C2604       C  0.42135189  0.79521676  0.90571796    -0.05900
C2605       C  0.41083131  0.78018758  0.91834738    -0.06600
C2606       C  0.40061883  0.78022486  0.95829989    -0.16200
C2607       C  0.40160622  0.79516080  0.98809728    -0.01800
C2608       C  0.41255660  0.80990374  0.97612698    -0.09300
C2609       C  0.43163699  0.79509045  0.86124372     0.65000
H2610       H  0.40999481  0.76851886  0.89640370     0.10400
C2611       C  0.39114180  0.79554429  0.03230360     0.63300
H2612       H  0.41334771  0.82159652  0.99798557     0.07800
F2613       F  0.48759180  0.84614491  0.88181009    -0.19700
F2614       F  0.48402074  0.83574825  0.95242331    -0.15900
F2615       F  0.48098909  0.86528033  0.93885237    -0.19400
F2616       F  0.39191585  0.83932503  0.94028439    -0.22800
F2617       F  0.39500278  0.82513066  0.87334439    -0.24300
F2618       F  0.39234269  0.85517334  0.87593748    -0.18300
F2619       F  0.39487963  0.81087737  0.05731646    -0.20700
F2620       F  0.39564191  0.78069330  0.05819578    -0.21900
F2621       F  0.37285192  0.79531359  0.02366238    -0.19100
F2622       F  0.42893580  0.77922267  0.83750390    -0.19200
F2623       F  0.44987921  0.79681993  0.86953915    -0.23000
F2624       F  0.42607184  0.80925971  0.83426141    -0.24600
C2625       C  0.34058993  0.73331780  0.75271479    -0.11400
C2626       C  0.35235725  0.74631910  0.73515582     0.11200
C2627       C  0.36453918  0.75546879  0.76383626    -0.03200
C2628       C  0.36440429  0.75125278  0.81001908    -0.06000
C2629       C  0.35243391  0.73842695  0.82812923    -0.16700
C2630       C  0.34042248  0.72905275  0.79902300     0.02200
C2631       C  0.35071938  0.75121744  0.68712051     0.12100
C2632       C  0.37723184  0.76999934  0.74598254     0.62700
H2633       H  0.37357749  0.75816383  0.83260630     0.12200
C2634       C  0.32717626  0.71499172  0.81639720     0.54900
H2635       H  0.33137284  0.72670166  0.72970140     0.07900
C2636       C  0.36062388  0.74231159  0.65294272    -0.05900
C2637       C  0.36087005  0.74992161  0.60950183    -0.06600
C2638       C  0.35111699  0.76561659  0.59972986    -0.16200
C2639       C  0.33995306  0.77354553  0.63297266    -0.01800
C2640       C  0.33986206  0.76604605  0.67648279    -0.09300
C2641       C  0.37090022  0.72502957  0.66249345     0.65000
H2642       H  0.36909116  0.74400151  0.58306792     0.10400
C2643       C  0.32930660  0.79055469  0.62341711     0.63300
H2644       H  0.33211664  0.77229360  0.70333063     0.07800
F2645       F  0.33646575  0.69994141  0.83109627    -0.19700
F2646       F  0.31529922  0.70949065  0.78307917    -0.15900
F2647       F  0.31712206  0.72201780  0.85168512    -0.19400
F2648       F  0.36736880  0.78447872  0.73017256    -0.22800
F2649       F  0.38765345  0.76327154  0.71107873    -0.24300
F2650       F  0.38876903  0.77625506  0.77921977    -0.18300
F2651       F  0.31723534  0.78746163  0.58871731    -0.20700
F2652       F  0.34101863  0.80422812  0.61111544    -0.21900
F2653       F  0.31963627  0.79623740  0.66088807    -0.19100
F2654       F  0.37971412  0.71872253  0.62432126    -0.19200
F2655       F  0.35900058  0.71182943  0.67683534    -0.23000
F2656       F  0.38361485  0.72786116  0.69581153    -0.24600
C2657       C  0.33727105  0.78178062  0.15647985    -0.11400
C2658       C  0.34987006  0.77848197  0.19063786     0.11200
C2659       C  0.36512498  0.76769061  0.18158055    -0.03200
C2660       C  0.36721049  0.76047225  0.13811688    -0.06000
C2661       C  0.35456958  0.76346216  0.10341822    -0.16700
C2662       C  0.33935553  0.77461355  0.11259905     0.02200
C2663       C  0.34599969  0.78497555  0.23695918     0.12100
C2664       C  0.37907494  0.76359452  0.21785211     0.62700
H2665       H  0.37883889  0.75214108  0.13125676     0.12200
C2666       C  0.32539796  0.77921349  0.07690968     0.54900
H2667       H  0.32558842  0.78985318  0.16489424     0.07900
C2668       C  0.35113786  0.80229158  0.25230048    -0.05900
C2669       C  0.34985889  0.80606307  0.29890151    -0.06600
C2670       C  0.34362096  0.79301954  0.32975516    -0.16200
C2671       C  0.33628513  0.77657510  0.31305554    -0.01800
C2672       C  0.33775760  0.77284542  0.26674315    -0.09300
C2673       C  0.35804393  0.81651743  0.21959982     0.65000
H2674       H  0.35444409  0.81893046  0.31173920     0.10400
C2675       C  0.32708818  0.76276104  0.34343225     0.63300
H2676       H  0.33331821  0.75992803  0.25367499     0.07800
F2677       F  0.31271533  0.79134609  0.09285251    -0.19700
F2678       F  0.31634514  0.76375561  0.06383614    -0.15900
F2679       F  0.33373860  0.78700604  0.03981484    -0.19400
F2680       F  0.37121314  0.75398201  0.25280982    -0.22800
F2681       F  0.38610971  0.77948391  0.23475226    -0.24300
F2682       F  0.39325141  0.75344157  0.20114068    -0.18300
F2683       F  0.31673062  0.75079112  0.31863362    -0.20700
F2684       F  0.31575009  0.77132016  0.37379430    -0.21900
F2685       F  0.33986874  0.75289408  0.36667623    -0.19100
F2686       F  0.36231171  0.83245956  0.24148803    -0.19200
F2687       F  0.34491438  0.82020886  0.18784233    -0.23000
F2688       F  0.37332627  0.81042079  0.19764552    -0.24600
C2689       C  0.27722518  0.70888036  0.01597641    -0.11400
C2690       C  0.26617023  0.72153679  0.99448398     0.11200
C2691       C  0.27361674  0.73377429  0.96284915    -0.03200
C2692       C  0.29221806  0.73323548  0.95470947    -0.06000
C2693       C  0.30359600  0.72112869  0.97759022    -0.16700
C2694       C  0.29592138  0.70826985  0.00779229     0.02200
C2695       C  0.24718141  0.72309613  0.00913367     0.12100
C2696       C  0.26203709  0.74773281  0.93884809     0.62700
H2697       H  0.29812204  0.74275426  0.93111515     0.12200
C2698       C  0.30725849  0.69434472  0.03241108     0.54900
H2699       H  0.27108648  0.69980969  0.04029636     0.07900
C2700       C  0.23330479  0.71221152  0.99125392    -0.05900
C2701       C  0.21537327  0.71625878  0.00287367    -0.06600
C2702       C  0.21108731  0.73052583  0.03243097    -0.16200
C2703       C  0.22530689  0.74052769  0.05285237    -0.01800
C2704       C  0.24312756  0.73651967  0.04067527    -0.09300
C2705       C  0.23750099  0.69636992  0.96050129     0.65000
H2706       H  0.20452682  0.70839082  0.98838284     0.10400
C2707       C  0.22202241  0.75515567  0.08787151     0.63300
H2708       H  0.25418437  0.74426867  0.05463333     0.07800
F2709       F  0.31515010  0.68284083  0.00135371    -0.19700
F2710       F  0.29702852  0.68393868  0.06176430    -0.15900
F2711       F  0.32048638  0.70285616  0.05748232    -0.19400
F2712       F  0.25516437  0.75986750  0.96985890    -0.22800
F2713       F  0.24791896  0.73932566  0.91686685    -0.24300
F2714       F  0.27178188  0.75739579  0.90697793    -0.18300
F2715       F  0.21116230  0.74844949  0.12209267    -0.20700
F2716       F  0.21392901  0.76990248  0.06774787    -0.21900
F2717       F  0.23788976  0.76109224  0.10745368    -0.19100
F2718       F  0.22199333  0.68779938  0.94583677    -0.19200
F2719       F  0.24777466  0.68389934  0.98372109    -0.23000
F2720       F  0.24698036  0.70216995  0.92287932    -0.24600
C2721       C  0.58219826  0.67679493  0.42937466    -0.11400
C2722       C  0.56985967  0.68651091  0.40346141     0.11200
C2723       C  0.57212466  0.70533054  0.39754094    -0.03200
C2724       C  0.58742292  0.71371884  0.41641810    -0.06000
C2725       C  0.60027838  0.70381823  0.44086643    -0.16700
C2726       C  0.59744431  0.68503310  0.44827273     0.02200
C2727       C  0.55452866  0.67637559  0.38387568     0.12100
C2728       C  0.55842931  0.71639046  0.37146598     0.62700
H2729       H  0.58959618  0.72805095  0.41168683     0.12200
C2730       C  0.60990952  0.67370111  0.47747084     0.54900
H2731       H  0.57979220  0.66250455  0.43427538     0.07900
C2732       C  0.55644263  0.66606720  0.34384348    -0.05900
C2733       C  0.54150829  0.65627740  0.32807694    -0.06600
C2734       C  0.52515396  0.65606339  0.35172768    -0.16200
C2735       C  0.52335899  0.66594662  0.39237416    -0.01800
C2736       C  0.53820061  0.67600140  0.40789764    -0.09300
C2737       C  0.57426212  0.66506730  0.31849855     0.65000
H2738       H  0.54257715  0.64844014  0.29750616     0.10400
C2739       C  0.50576754  0.66607079  0.41861002     0.63300
H2740       H  0.53723513  0.68362760  0.43903590     0.07800
F2741       F  0.60301580  0.65661118  0.48536380    -0.19700
F2742       F  0.61214797  0.68197271  0.51892583    -0.15900
F2743       F  0.62643113  0.67164775  0.45639368    -0.19400
F2744       F  0.54183918  0.71538251  0.39270517    -0.22800
F2745       F  0.55682371  0.70983326  0.32790253    -0.24300
F2746       F  0.56334069  0.73438943  0.36886139    -0.18300
F2747       F  0.50707507  0.67602337  0.45807754    -0.20700
F2748       F  0.50088431  0.64863605  0.43007235    -0.21900
F2749       F  0.49242692  0.67363345  0.39224049    -0.19100
F2750       F  0.57280707  0.65512093  0.27904229    -0.19200
F2751       F  0.58709297  0.65691819  0.34541774    -0.23000
F2752       F  0.58007961  0.68220189  0.30709452    -0.24600
C2753       C  0.42327395  0.68885442  0.42010886    -0.11400
C2754       C  0.42491330  0.70503266  0.39577659     0.11200
C2755       C  0.43714548  0.70614421  0.35910563    -0.03200
C2756       C  0.44635987  0.69047333  0.34580325    -0.06000
C2757       C  0.44406220  0.67394980  0.36853342    -0.16700
C2758       C  0.43283043  0.67322979  0.40747378     0.02200
C2759       C  0.41417158  0.72082312  0.41076575     0.12100
C2760       C  0.44043955  0.72378572  0.33411273     0.62700
H2761       H  0.45523193  0.69094915  0.31668146     0.12200
C2762       C  0.43149817  0.65642928  0.43675656     0.54900
H2763       H  0.41432868  0.68858487  0.44912145     0.07900
C2764       C  0.39598503  0.72321729  0.39796568    -0.05900
C2765       C  0.38662815  0.73835916  0.41433238    -0.06600
C2766       C  0.39489299  0.75122441  0.44248579    -0.16200
C2767       C  0.41337391  0.74897577  0.45424526    -0.01800
C2768       C  0.42249672  0.73352046  0.43881442    -0.09300
C2769       C  0.38645278  0.70973246  0.36758597     0.65000
H2770       H  0.37264793  0.74024962  0.40514997     0.10400
C2771       C  0.42359073  0.76251092  0.48314154     0.63300
H2772       H  0.43640363  0.73121825  0.44816056     0.07800
F2773       F  0.42239443  0.64294651  0.41399351    -0.19700
F2774       F  0.42233817  0.65974086  0.47676697    -0.15900
F2775       F  0.44861386  0.65053387  0.44771841    -0.19400
F2776       F  0.44744996  0.73646164  0.36348774    -0.22800
F2777       F  0.42447105  0.73021670  0.31645158    -0.24300
F2778       F  0.45255167  0.72172470  0.29879436    -0.18300
F2779       F  0.44095959  0.75683279  0.49243076    -0.20700
F2780       F  0.41480646  0.76490879  0.52401156    -0.21900
F2781       F  0.42487283  0.77881820  0.46053745    -0.19100
F2782       F  0.36913423  0.71521440  0.35704984    -0.19200
F2783       F  0.38534521  0.69321250  0.38912937    -0.23000
F2784       F  0.39586594  0.70770999  0.32750838    -0.24600
C2785       C  0.38272099  0.67345266  0.14625546    -0.11400
C2786       C  0.38814609  0.65697810  0.12764034     0.11200
C2787       C  0.38208129  0.65197943  0.08424994    -0.03200
C2788       C  0.37406290  0.66531066  0.05695929    -0.06000
C2789       C  0.37142305  0.68299334  0.07319200    -0.16700
C2790       C  0.37382896  0.68642763  0.12005080     0.02200
C2791       C  0.40243982  0.64699934  0.15176134     0.12100
C2792       C  0.38430896  0.63281192  0.06723697     0.62700
H2793       H  0.37111202  0.66232571  0.02190660     0.12200
C2794       C  0.36840249  0.70404288  0.14226970     0.54900
H2795       H  0.38673747  0.67669436  0.18054123     0.07900
C2796       C  0.42073255  0.65189179  0.14573476    -0.05900
C2797       C  0.43344225  0.64532111  0.17648051    -0.06600
C2798       C  0.42847582  0.63444570  0.21346397    -0.16200
C2799       C  0.41045436  0.62799357  0.21658355    -0.01800
C2800       C  0.39761838  0.63466050  0.18566791    -0.09300
C2801       C  0.42672776  0.66483860  0.10854046     0.65000
H2802       H  0.44737168  0.64952045  0.17322324     0.10400
C2803       C  0.40453979  0.61478054  0.25297677     0.63300
H2804       H  0.38353640  0.63104458  0.18909934     0.07800
F2805       F  0.38199401  0.71664161  0.13687676    -0.19700
F2806       F  0.36540114  0.70163209  0.18813446    -0.15900
F2807       F  0.35260904  0.71051808  0.12354028    -0.19400
F2808       F  0.37589286  0.62108644  0.09699779    -0.22800
F2809       F  0.40233329  0.62831751  0.06433918    -0.24300
F2810       F  0.37664114  0.63052336  0.02499070    -0.18300
F2811       F  0.40676593  0.62242131  0.29525961    -0.20700
F2812       F  0.41467382  0.59917925  0.24986552    -0.21900
F2813       F  0.38659578  0.60998143  0.24848292    -0.19100
F2814       F  0.44525249  0.66710675  0.10783958    -0.19200
F2815       F  0.41899256  0.68158411  0.11506796    -0.23000
F2816       F  0.42161752  0.65828919  0.06678121    -0.24600
C2817       C  0.41297253  0.34773236  0.15056704    -0.11400
C2818       C  0.42194792  0.33115315  0.15285611     0.11200
C2819       C  0.44017322  0.33055383  0.16661690    -0.03200
C2820       C  0.44867191  0.34674326  0.17920074    -0.06000
C2821       C  0.43963520  0.36338640  0.17782126    -0.16700
C2822       C  0.42141945  0.36395410  0.16330348     0.02200
C2823       C  0.41213319  0.31480821  0.13777795     0.12100
C2824       C  0.45057643  0.31291781  0.16794236     0.62700
H2825       H  0.46254919  0.34653984  0.19045511     0.12200
C2826       C  0.41059264  0.38130405  0.16322556     0.54900
H2827       H  0.39914453  0.34777889  0.13894936     0.07900
C2828       C  0.39995624  0.30535102  0.16611553    -0.05900
C2829       C  0.39086439  0.29021779  0.14848579    -0.06600
C2830       C  0.39336242  0.28456206  0.10346444    -0.16200
C2831       C  0.40534492  0.29444048  0.07500214    -0.01800
C2832       C  0.41453253  0.30937065  0.09293933    -0.09300
C2833       C  0.39625834  0.31151954  0.21425381     0.65000
H2834       H  0.38155673  0.28276190  0.16974359     0.10400
C2835       C  0.40792115  0.28993199  0.02536580     0.63300
H2836       H  0.42365995  0.31714680  0.07189473     0.07800
F2837       F  0.41086159  0.38891415  0.20582280    -0.19700
F2838       F  0.39276830  0.37837922  0.15155713    -0.15900
F2839       F  0.41779919  0.39330367  0.13238208    -0.19400
F2840       F  0.45181566  0.30577665  0.12488332    -0.22800
F2841       F  0.44188591  0.30066959  0.19575293    -0.24300
F2842       F  0.46789898  0.31529539  0.18419408    -0.18300
F2843       F  0.41828111  0.30271517  0.00305374    -0.20700
F2844       F  0.39129547  0.28929553  0.00439481    -0.21900
F2845       F  0.41658745  0.27351581  0.02116486    -0.19100
F2846       F  0.38506322  0.29963121  0.23713459    -0.19200
F2847       F  0.38800421  0.32821769  0.21352921    -0.23000
F2848       F  0.41218776  0.31284636  0.23812964    -0.24600
C2849       C  0.37938111  0.37664355  0.44243339    -0.11400
C2850       C  0.39318072  0.37186148  0.41228703     0.11200
C2851       C  0.39859193  0.35363575  0.40857842    -0.03200
C2852       C  0.39063443  0.34089830  0.43732945    -0.06000
C2853       C  0.37758160  0.34567644  0.46980373    -0.16700
C2854       C  0.37120302  0.36373722  0.47105029     0.02200
C2855       C  0.40310418  0.38611941  0.38753844     0.12100
C2856       C  0.41331986  0.34770166  0.37578005     0.62700
H2857       H  0.39538730  0.32711714  0.43607105     0.12200
C2858       C  0.35578090  0.36942102  0.50162754     0.54900
H2859       H  0.37545265  0.39068755  0.44431110     0.07900
C2860       C  0.39798700  0.39190745  0.34395386    -0.05900
C2861       C  0.41096766  0.40056867  0.31673252    -0.06600
C2862       C  0.42879082  0.40303004  0.33183909    -0.16200
C2863       C  0.43261295  0.40025110  0.37839742    -0.01800
C2864       C  0.41964861  0.39160588  0.40540445    -0.09300
C2865       C  0.37929972  0.38800399  0.32570516     0.65000
H2866       H  0.40768148  0.40387703  0.28212628     0.10400
C2867       C  0.45085658  0.40396590  0.39905598     0.63300
H2868       H  0.42307148  0.38749667  0.43952730     0.07800
F2869       F  0.34965932  0.38654029  0.49099864    -0.19700
F2870       F  0.36136384  0.36956581  0.54619166    -0.15900
F2871       F  0.34149049  0.35756593  0.49676549    -0.19400
F2872       F  0.42966648  0.35504173  0.38850355    -0.22800
F2873       F  0.40929508  0.35330150  0.33237570    -0.24300
F2874       F  0.41521474  0.32912338  0.37485604    -0.18300
F2875       F  0.44931143  0.40726400  0.44500428    -0.20700
F2876       F  0.45883136  0.41898601  0.37956867    -0.21900
F2877       F  0.46161997  0.38897041  0.39289054    -0.19100
F2878       F  0.37686722  0.39533075  0.28306626    -0.19200
F2879       F  0.36652755  0.39537324  0.35432976    -0.23000
F2880       F  0.37651229  0.36959363  0.32291944    -0.24600
C2881       C  0.44985079  0.50029284  0.23203357    -0.11400
C2882       C  0.46156080  0.50784593  0.26402288     0.11200
C2883       C  0.47398260  0.49667734  0.28706343    -0.03200
C2884       C  0.47508280  0.47837293  0.27499845    -0.06000
C2885       C  0.46383366  0.47089179  0.24185120    -0.16700
C2886       C  0.45075443  0.48187430  0.22041864     0.02200
C2887       C  0.46143960  0.52769862  0.27086729     0.12100
C2888       C  0.48605894  0.50413326  0.32406367     0.62700
H2889       H  0.48480153  0.46967920  0.29141403     0.12200
C2890       C  0.43844915  0.47441816  0.18398670     0.54900
H2891       H  0.44032078  0.50910649  0.21536652     0.07900
C2892       C  0.47164250  0.53931765  0.24275352    -0.05900
C2893       C  0.47285592  0.55766631  0.25421758    -0.06600
C2894       C  0.46407154  0.56479704  0.29243377    -0.16200
C2895       C  0.45303024  0.55322076  0.31931678    -0.01800
C2896       C  0.45189275  0.53480438  0.30768468    -0.09300
C2897       C  0.48127822  0.53229541  0.20090958     0.65000
H2898       H  0.48088355  0.56663007  0.23334885     0.10400
C2899       C  0.44302062  0.55988706  0.36101436     0.63300
H2900       H  0.44394659  0.52559280  0.32806811     0.07800
F2901       F  0.44868361  0.46689190  0.14970599    -0.19700
F2902       F  0.42772703  0.48771340  0.16520728    -0.15900
F2903       F  0.42722084  0.46138811  0.20220594    -0.19400
F2904       F  0.47557888  0.51062521  0.35917057    -0.22800
F2905       F  0.49660582  0.51800504  0.30723881    -0.24300
F2906       F  0.49740582  0.49106052  0.34144171    -0.18300
F2907       F  0.43434148  0.54599542  0.38366369    -0.20700
F2908       F  0.43007782  0.57231684  0.34849319    -0.21900
F2909       F  0.45501079  0.56777088  0.39085560    -0.19100
F2910       F  0.49115817  0.54567794  0.17947321    -0.19200
F2911       F  0.46875475  0.52574112  0.17051884    -0.23000
F2912       F  0.49299327  0.51858106  0.21250955    -0.24600
C2913       C  0.59379399  0.68548206  0.91285006    -0.11400
C2914       C  0.58994803  0.70228208  0.89360344     0.11200
C2915       C  0.57755579  0.70355068  0.85759750    -0.03200
C2916       C  0.56880148  0.68780436  0.84302020    -0.06000
C2917       C  0.57267976  0.67078638  0.86176994    -0.16700
C2918       C  0.58551981  0.66955330  0.89740608     0.02200
C2919       C  0.59997031  0.71822336  0.91010784     0.12100
C2920       C  0.57411300  0.72136466  0.83364807     0.62700
H2921       H  0.55933048  0.68862400  0.81530865     0.12200
C2922       C  0.59066497  0.65174490  0.91935526     0.54900
H2923       H  0.60372423  0.68496742  0.93960017     0.07900
C2924       C  0.59446390  0.72798056  0.94883428    -0.05900
C2925       C  0.60440637  0.74333511  0.96137333    -0.06600
C2926       C  0.61986119  0.74866560  0.93731708    -0.16200
C2927       C  0.62553341  0.73864472  0.89909144    -0.01800
C2928       C  0.61542990  0.72347679  0.88621116    -0.09300
C2929       C  0.57842220  0.72195696  0.97712587     0.65000
H2930       H  0.60050387  0.75102931  0.99095467     0.10400
C2931       C  0.64177900  0.74424237  0.87115738     0.63300
H2932       H  0.61947489  0.71553561  0.85717313     0.07800
F2933       F  0.60158991  0.65420639  0.95675167    -0.19700
F2934       F  0.60001427  0.64117450  0.88877613    -0.15900
F2935       F  0.57536789  0.64275834  0.93367358    -0.19400
F2936       F  0.58971523  0.72710541  0.81236015    -0.22800
F2937       F  0.56875146  0.73430705  0.86447280    -0.24300
F2938       F  0.56079723  0.71983115  0.80117558    -0.18300
F2939       F  0.65731689  0.74223005  0.89629600    -0.20700
F2940       F  0.63995911  0.76206110  0.85809377    -0.21900
F2941       F  0.64355058  0.73388748  0.83245823    -0.19100
F2942       F  0.57519186  0.73356344  0.01289992    -0.19200
F2943       F  0.58163993  0.70498559  0.99474166    -0.23000
F2944       F  0.56309467  0.72132930  0.95072522    -0.24600
C2945       C  0.62861760  0.67921660  0.65601981    -0.11400
C2946       C  0.62921993  0.66135381  0.64045138     0.11200
C2947       C  0.63849181  0.65733292  0.59980437    -0.03200
C2948       C  0.64551614  0.67167895  0.57392185    -0.06000
C2949       C  0.64314520  0.68969954  0.58729237    -0.16700
C2950       C  0.63591709  0.69347714  0.63066390     0.02200
C2951       C  0.61731688  0.64809563  0.66345610     0.12100
C2952       C  0.63993638  0.63814448  0.58241137     0.62700
H2953       H  0.65130413  0.66898393  0.54093979     0.12200
C2954       C  0.63520352  0.71247642  0.64974941     0.54900
H2955       H  0.62140212  0.68211621  0.68710164     0.07900
C2956       C  0.62092015  0.64131748  0.70732405    -0.05900
C2957       C  0.60690740  0.63265052  0.73122464    -0.06600
C2958       C  0.58955826  0.63112793  0.71284307    -0.16200
C2959       C  0.58657663  0.63620183  0.66731858    -0.01800
C2960       C  0.60050396  0.64483883  0.64352718    -0.09300
C2961       C  0.63917958  0.64390801  0.72944594     0.65000
H2962       H  0.60893855  0.62855755  0.76602682     0.10400
C2963       C  0.56836332  0.63399296  0.64492034     0.63300
H2964       H  0.59787257  0.65034262  0.61020788     0.07800
F2965       F  0.63399365  0.71218149  0.69649877    -0.19700
F2966       F  0.62033430  0.72146864  0.63303890    -0.15900
F2967       F  0.65070162  0.72186226  0.63834744    -0.19400
F2968       F  0.62321866  0.63209500  0.56857360    -0.22800
F2969       F  0.64625635  0.62695245  0.61620252    -0.24300
F2970       F  0.65167981  0.63695533  0.54607144    -0.18300
F2971       F  0.55722724  0.64794882  0.65796977    -0.20700
F2972       F  0.56063045  0.61769108  0.65713571    -0.21900
F2973       F  0.56989874  0.63431190  0.59822885    -0.19100
F2974       F  0.64004579  0.63543267  0.77113106    -0.19200
F2975       F  0.64260969  0.66204402  0.73594623    -0.23000
F2976       F  0.65249368  0.63672578  0.70217355    -0.24600
C2977       C  0.47462101  0.68088622  0.86233433    -0.11400
C2978       C  0.45805539  0.67178608  0.86317792     0.11200
C2979       C  0.45702364  0.65357859  0.84918159    -0.03200
C2980       C  0.47302610  0.64464131  0.83749539    -0.06000
C2981       C  0.48972876  0.65352395  0.83811755    -0.16700
C2982       C  0.49063207  0.67203752  0.84997569     0.02200
C2983       C  0.44226081  0.68117606  0.88259798     0.12100
C2984       C  0.43909541  0.64371435  0.84652314     0.62700
H2985       H  0.47260902  0.63063384  0.82711174     0.12200
C2986       C  0.50840594  0.68222415  0.85131730     0.54900
H2987       H  0.47491581  0.69491198  0.87256223     0.07900
C2988       C  0.43969343  0.68212489  0.92992136    -0.05900
C2989       C  0.42409505  0.69044937  0.94652942    -0.06600
C2990       C  0.41105444  0.69779828  0.91751777    -0.16200
C2991       C  0.41368871  0.69691568  0.86990610    -0.01800
C2992       C  0.42949658  0.68872782  0.85333090    -0.09300
C2993       C  0.45339994  0.67436939  0.96275284     0.65000
H2994       H  0.42190737  0.69117446  0.98272120     0.10400
C2995       C  0.40016557  0.70469629  0.83666068     0.63300
H2996       H  0.43194527  0.68788277  0.81726589     0.07800
F2997       F  0.50644443  0.69928349  0.86970036    -0.19700
F2998       F  0.51516134  0.68419588  0.80796112    -0.15900
F2999       F  0.52067254  0.67288792  0.87752886    -0.19400
F3000       F  0.42821280  0.65201398  0.81487053    -0.22800
F3001       F  0.43055922  0.64398727  0.88814466    -0.24300
F3002       F  0.44122908  0.62587737  0.83377874    -0.18300
F3003       F  0.40644226  0.70401133  0.79254171    -0.20700
F3004       F  0.39675342  0.72256480  0.84703558    -0.21900
F3005       F  0.38428065  0.69493480  0.83859212    -0.19100
F3006       F  0.44766825  0.67571103  0.00719545    -0.19200
F3007       F  0.46949476  0.68365553  0.95885019    -0.23000
F3008       F  0.45632024  0.65632956  0.95346814    -0.24600
C3009       C  0.52241372  0.59506542  0.02110965    -0.11400
C3010       C  0.52464203  0.61147842  0.04392059     0.11200
C3011       C  0.53303155  0.62621282  0.02182672    -0.03200
C3012       C  0.53787725  0.62433024  0.97617174    -0.06000
C3013       C  0.53495534  0.60818195  0.95253353    -0.16700
C3014       C  0.52737409  0.59312443  0.97539586     0.02200
C3015       C  0.51749735  0.61311932  0.09053838     0.12100
C3016       C  0.53683019  0.64382427  0.04635618     0.62700
H3017       H  0.54349362  0.63572890  0.95807727     0.12200
C3018       C  0.52465959  0.57508293  0.95205748     0.54900
H3019       H  0.51627341  0.58391547  0.03921030     0.07900
C3020       C  0.49914283  0.61697738  0.09898024    -0.05900
C3021       C  0.49360984  0.61995698  0.14376171    -0.06600
C3022       C  0.50569884  0.61888045  0.18020709    -0.16200
C3023       C  0.52396830  0.61416542  0.17169587    -0.01800
C3024       C  0.52950234  0.61136519  0.12668201    -0.09300
C3025       C  0.48546775  0.61793020  0.06087292     0.65000
H3026       H  0.47962379  0.62309678  0.15069300     0.10400
C3027       C  0.53778441  0.61270963  0.20923164     0.63300
H3028       H  0.54338528  0.60803388  0.11906079     0.07800
F3029       F  0.51108612  0.57642105  0.92031646    -0.19700
F3030       F  0.51985720  0.56168050  0.98246811    -0.15900
F3031       F  0.54047410  0.56987451  0.93094776    -0.19400
F3032       F  0.54914216  0.64082312  0.08053689    -0.22800
F3033       F  0.52112531  0.65063084  0.06486615    -0.24300
F3034       F  0.54395134  0.65679187  0.01763985    -0.18300
F3035       F  0.55501579  0.60993838  0.19257188    -0.20700
F3036       F  0.53355216  0.59836577  0.23726515    -0.21900
F3037       F  0.53798213  0.62850098  0.23389119    -0.19100
F3038       F  0.46849019  0.62260758  0.07644879    -0.19200
F3039       F  0.48414188  0.60128384  0.04009988    -0.23000
F3040       F  0.49075185  0.63066009  0.02928217    -0.24600
C3041       C  0.49272892  0.62793313  0.61069659    -0.11400
C3042       C  0.48839426  0.61016836  0.59883263     0.11200
C3043       C  0.49187605  0.59588965  0.62932463    -0.03200
C3044       C  0.50075086  0.59987162  0.67000755    -0.06000
C3045       C  0.50609525  0.61754709  0.68060455    -0.16700
C3046       C  0.50110550  0.63200120  0.65184894     0.02200
C3047       C  0.48359304  0.60689934  0.55117057     0.12100
C3048       C  0.48654230  0.57656963  0.61855674     0.62700
H3049       H  0.50416031  0.58908941  0.69320581     0.12200
C3050       C  0.50412274  0.65162467  0.66462684     0.54900
H3051       H  0.49016254  0.63858144  0.58642995     0.07900
C3052       C  0.46674371  0.61166977  0.53274078    -0.05900
C3053       C  0.46467164  0.61103189  0.48557596    -0.06600
C3054       C  0.47904105  0.60645118  0.45646136    -0.16200
C3055       C  0.49572632  0.60076836  0.47567923    -0.01800
C3056       C  0.49757380  0.60126420  0.52282287    -0.09300
C3057       C  0.45124256  0.61793612  0.56249034     0.65000
H3058       H  0.45187624  0.61488241  0.47104856     0.10400
C3059       C  0.51193764  0.59485790  0.44774163     0.63300
H3060       H  0.51040136  0.59806722  0.53826096     0.07800
F3061       F  0.49761159  0.65475200  0.70779078    -0.19700
F3062       F  0.49529062  0.66324414  0.63547584    -0.15900
F3063       F  0.52225240  0.65571426  0.66299489    -0.19400
F3064       F  0.49631145  0.57030533  0.58197875    -0.22800
F3065       F  0.46839447  0.57577630  0.60841638    -0.24300
F3066       F  0.48966260  0.56512613  0.65473073    -0.18300
F3067       F  0.52621043  0.58941648  0.47456567    -0.20700
F3068       F  0.51797819  0.60905076  0.42142075    -0.21900
F3069       F  0.50731520  0.58037590  0.42065579    -0.19100
F3070       F  0.43561769  0.62053173  0.53784909    -0.19200
F3071       F  0.45560758  0.63409760  0.58300135    -0.23000
F3072       F  0.44768716  0.60519972  0.59548769    -0.24600
C3073       C  0.46716366  0.36568060  0.63380315    -0.11400
C3074       C  0.45798424  0.35590763  0.66740483     0.11200
C3075       C  0.46474705  0.35570425  0.71204554    -0.03200
C3076       C  0.47982465  0.36648058  0.72229812    -0.06000
C3077       C  0.48860641  0.37704011  0.68924023    -0.16700
C3078       C  0.48251694  0.37618863  0.64373900     0.02200
C3079       C  0.44128993  0.34602890  0.65458088     0.12100
C3080       C  0.45612734  0.34406937  0.74856123     0.62700
H3081       H  0.48478841  0.36685507  0.75669109     0.12200
C3082       C  0.49229659  0.38584143  0.60549888     0.54900
H3083       H  0.46198041  0.36517894  0.59960811     0.07900
C3084       C  0.42440428  0.35483751  0.65195560    -0.05900
C3085       C  0.40930403  0.34493955  0.63742041    -0.06600
C3086       C  0.41067978  0.32677927  0.62449971    -0.16200
C3087       C  0.42745480  0.31780289  0.62845555    -0.01800
C3088       C  0.44256838  0.32769054  0.64324701    -0.09300
C3089       C  0.42245993  0.37474749  0.66312881     0.65000
H3090       H  0.39638950  0.35157921  0.63395488     0.10400
C3091       C  0.42934907  0.29785914  0.61784293     0.63300
H3092       H  0.45563493  0.32126204  0.64529745     0.07800
F3093       F  0.48589632  0.38057911  0.56357821    -0.19700
F3094       F  0.51050626  0.38189348  0.60689553    -0.15900
F3095       F  0.48988499  0.40426387  0.60939168    -0.19400
F3096       F  0.45683223  0.32612968  0.73596838    -0.22800
F3097       F  0.43833617  0.34895992  0.75477857    -0.24300
F3098       F  0.46489031  0.34577957  0.78962007    -0.18300
F3099       F  0.44582697  0.29116844  0.63181696    -0.20700
F3100       F  0.42797194  0.29512030  0.57176270    -0.21900
F3101       F  0.41597170  0.28819026  0.63985186    -0.19100
F3102       F  0.40474747  0.38043890  0.66000969    -0.19200
F3103       F  0.43265340  0.38491844  0.63332175    -0.23000
F3104       F  0.42828525  0.37802596  0.70670822    -0.24600
C3105       C  0.52584644  0.44024293  0.51032951    -0.11400
C3106       C  0.53387781  0.42727110  0.48263180     0.11200
C3107       C  0.54731655  0.41583125  0.50019907    -0.03200
C3108       C  0.55033036  0.41593721  0.54705244    -0.06000
C3109       C  0.54023589  0.42703003  0.57622971    -0.16700
C3110       C  0.52887394  0.44047214  0.55714979     0.02200
C3111       C  0.52578406  0.42403870  0.43786905     0.12100
C3112       C  0.55773623  0.40306510  0.46973827     0.62700
H3113       H  0.55988735  0.40657865  0.56131553     0.12200
C3114       C  0.51987929  0.45500696  0.58531312     0.54900
H3115       H  0.51607355  0.44930739  0.49543386     0.07900
C3116       C  0.51037563  0.41293040  0.43383246    -0.05900
C3117       C  0.50302048  0.41029042  0.39085880    -0.06600
C3118       C  0.51013239  0.41874054  0.35228986    -0.16200
C3119       C  0.52580365  0.42964071  0.35623588    -0.01800
C3120       C  0.53333091  0.43221112  0.39946696    -0.09300
C3121       C  0.50153518  0.40414931  0.47490885     0.65000
H3122       H  0.49137449  0.40174314  0.38712249     0.10400
C3123       C  0.53492539  0.43796406  0.31518798     0.63300
H3124       H  0.54512130  0.44066106  0.40374924     0.07800
F3125       F  0.51327312  0.46883498  0.55857709    -0.19700
F3126       F  0.53230404  0.46243884  0.61462433    -0.15900
F3127       F  0.50559943  0.44778402  0.60944413    -0.19400
F3128       F  0.56614087  0.41276693  0.43571709    -0.22800
F3129       F  0.54616906  0.39061263  0.45055384    -0.24300
F3130       F  0.57087148  0.39377462  0.49326355    -0.18300
F3131       F  0.52424144  0.45152851  0.29769641    -0.20700
F3132       F  0.53773531  0.42489915  0.28251951    -0.21900
F3133       F  0.55150805  0.44536728  0.32595535    -0.19100
F3134       F  0.48747846  0.39287061  0.46286448    -0.19200
F3135       F  0.49470214  0.41731011  0.50322990    -0.23000
F3136       F  0.51395666  0.39393484  0.49837978    -0.24600
C3137       C  0.49747618  0.43573124  0.91115562    -0.11400
C3138       C  0.49415729  0.42075012  0.93893318     0.11200
C3139       C  0.49600662  0.40309836  0.92141498    -0.03200
C3140       C  0.50250603  0.40105034  0.87712459    -0.06000
C3141       C  0.50686786  0.41601021  0.85005597    -0.16700
C3142       C  0.50397326  0.43368764  0.86671038     0.02200
C3143       C  0.48988124  0.42387701  0.98718088     0.12100
C3144       C  0.49136547  0.38654560  0.94958942     0.62700
H3145       H  0.50456922  0.38765993  0.86339936     0.12200
C3146       C  0.50873467  0.45025206  0.83893186     0.54900
H3147       H  0.49562868  0.44906370  0.92537590     0.07900
C3148       C  0.50360806  0.42681800  0.01929606    -0.05900
C3149       C  0.49876948  0.42818689  0.06504531    -0.06600
C3150       C  0.48085575  0.42585711  0.08006519    -0.16200
C3151       C  0.46700655  0.42384226  0.04710284    -0.01800
C3152       C  0.47186900  0.42316506  0.00104064    -0.09300
C3153       C  0.52333322  0.42806082  0.00536456     0.65000
H3154       H  0.50921634  0.43062442  0.08969072     0.10400
C3155       C  0.44731303  0.42164264  0.05970695     0.63300
H3156       H  0.46169361  0.42130001  0.97526994     0.07800
F3157       F  0.50570351  0.46606648  0.86261634    -0.19700
F3158       F  0.49835539  0.45073970  0.80019616    -0.15900
F3159       F  0.52677270  0.44972512  0.82725198    -0.19400
F3160       F  0.47330465  0.38689205  0.96110065    -0.22800
F3161       F  0.50155856  0.38627268  0.98865601    -0.24300
F3162       F  0.49460835  0.37068585  0.92625462    -0.18300
F3163       F  0.43639599  0.41987579  0.02205411    -0.20700
F3164       F  0.44147708  0.43657494  0.08358483    -0.21900
F3165       F  0.44523572  0.40626538  0.08554735    -0.19100
F3166       F  0.53457782  0.43022757  0.04226069    -0.19200
F3167       F  0.52586317  0.44265758  0.97692143    -0.23000
F3168       F  0.52846535  0.41249340  0.98307901    -0.24600
C3169       C  0.56552106  0.49322704  0.77807681    -0.11400
C3170       C  0.55422273  0.50566816  0.75634344     0.11200
C3171       C  0.54250830  0.49973171  0.72175028    -0.03200
C3172       C  0.54079255  0.48112772  0.71408302    -0.06000
C3173       C  0.55161116  0.46855260  0.73667838    -0.16700
C3174       C  0.56470599  0.47463960  0.76795167     0.02200
C3175       C  0.55386493  0.52464960  0.77224837     0.12100
C3176       C  0.53219107  0.51303784  0.69250501     0.62700
H3177       H  0.53093910  0.47623215  0.69018449     0.12200
C3178       C  0.57730388  0.46154184  0.79132851     0.54900
H3179       H  0.57471443  0.49818080  0.80361511     0.07900
C3180       C  0.54096782  0.53044230  0.80446534    -0.05900
C3181       C  0.53937695  0.54899592  0.81332110    -0.06600
C3182       C  0.55090854  0.56163308  0.79298241    -0.16200
C3183       C  0.56485132  0.55568527  0.76377278    -0.01800
C3184       C  0.56592419  0.53716035  0.75327900    -0.09300
C3185       C  0.52917197  0.51700281  0.82981254     0.65000
H3186       H  0.52913746  0.55382557  0.83651246     0.10400
C3187       C  0.57812519  0.56889611  0.74289148     0.63300
H3188       H  0.57592988  0.53231423  0.72950459     0.07800
F3189       F  0.56742794  0.44857344  0.81422438    -0.19700
F3190       F  0.58837242  0.47016239  0.82215716    -0.15900
F3191       F  0.58815611  0.45324971  0.75948756    -0.19400
F3192       F  0.54427064  0.52428816  0.67056984    -0.22800
F3193       F  0.52073330  0.52338289  0.71864940    -0.24300
F3194       F  0.52197444  0.50436778  0.65995440    -0.18300
F3195       F  0.59025294  0.56037789  0.71440829    -0.20700
F3196       F  0.58784712  0.57733700  0.77665191    -0.21900
F3197       F  0.56893678  0.58172344  0.71803392    -0.19100
F3198       F  0.51791406  0.52546432  0.86055707    -0.19200
F3199       F  0.53997127  0.50509081  0.85337737    -0.23000
F3200       F  0.51854522  0.50738776  0.80001237    -0.24600
C3201       C  0.60902215  0.21891914  0.14435991    -0.11400
C3202       C  0.59545623  0.21302769  0.11504323     0.11200
C3203       C  0.59215708  0.22245614  0.07442472    -0.03200
C3204       C  0.60340080  0.23707347  0.06321626    -0.06000
C3205       C  0.61739870  0.24287550  0.09193204    -0.16700
C3206       C  0.62007021  0.23380090  0.13385227     0.02200
C3207       C  0.58450457  0.19726616  0.12904148     0.12100
C3208       C  0.57661947  0.21728734  0.04360445     0.62700
H3209       H  0.60123581  0.24415178  0.03165775     0.12200
C3210       C  0.63398972  0.23990868  0.16824468     0.54900
H3211       H  0.61084477  0.21164072  0.17580484     0.07900
C3212       C  0.59038700  0.17937462  0.12171236    -0.05900
C3213       C  0.57978803  0.16511590  0.13848222    -0.06600
C3214       C  0.56423787  0.16827774  0.16458592    -0.16200
C3215       C  0.55819591  0.18625747  0.17091369    -0.01800
C3216       C  0.56848957  0.20047378  0.15279913    -0.09300
C3217       C  0.60821669  0.17543225  0.09833055     0.65000
H3218       H  0.58424121  0.15134158  0.13374002     0.10400
C3219       C  0.54107338  0.19056414  0.19673434     0.63300
H3220       H  0.56444543  0.21433312  0.15836829     0.07800
F3221       F  0.63258600  0.23037968  0.20840416    -0.19700
F3222       F  0.63152472  0.25797858  0.17806521    -0.15900
F3223       F  0.65116616  0.23722267  0.15135191    -0.19400
F3224       F  0.56048367  0.21925323  0.06653238    -0.22800
F3225       F  0.57832354  0.19955842  0.02987199    -0.24300
F3226       F  0.57599249  0.22802225  0.00529747    -0.18300
F3227       F  0.53577728  0.20828434  0.19039510    -0.20700
F3228       F  0.54389849  0.18795631  0.24247703    -0.21900
F3229       F  0.52721232  0.17955795  0.18197945    -0.19100
F3230       F  0.61102727  0.15709705  0.09301174    -0.19200
F3231       F  0.62222818  0.18229096  0.12382504    -0.23000
F3232       F  0.60861514  0.18331335  0.05596901    -0.24600
C3233       C  0.63187598  0.37507656  0.94742961    -0.11400
C3234       C  0.62251895  0.36972852  0.90858560     0.11200
C3235       C  0.62211851  0.35132246  0.89607499    -0.03200
C3236       C  0.62921212  0.33863347  0.92612255    -0.06000
C3237       C  0.63740469  0.34364067  0.96691483    -0.16700
C3238       C  0.63960505  0.36226714  0.97685390     0.02200
C3239       C  0.61136482  0.38299973  0.88394437     0.12100
C3240       C  0.61376349  0.34502787  0.85179269     0.62700
H3241       H  0.62760411  0.32448418  0.91884485     0.12200
C3242       C  0.64918676  0.36863086  0.01908290     0.54900
H3243       H  0.63234913  0.38932406  0.95546899     0.07900
C3244       C  0.59333872  0.38629178  0.89734171    -0.05900
C3245       C  0.58145075  0.39372679  0.86558799    -0.06600
C3246       C  0.58712080  0.39788215  0.82149788    -0.16200
C3247       C  0.60561855  0.39640972  0.80985699    -0.01800
C3248       C  0.61757914  0.38927844  0.84204145    -0.09300
C3249       C  0.58653540  0.38115423  0.94416548     0.65000
H3250       H  0.56731925  0.39529776  0.87399400     0.10400
C3251       C  0.61243951  0.40069108  0.76260951     0.63300
H3252       H  0.63154009  0.38687166  0.83319788     0.07800
F3253       F  0.64936619  0.38725402  0.02253102    -0.19700
F3254       F  0.66683087  0.36280565  0.01805820    -0.15900
F3255       F  0.64065645  0.36180265  0.05695211    -0.19400
F3256       F  0.62318491  0.35238521  0.81581133    -0.22800
F3257       F  0.59593798  0.35031249  0.84938004    -0.24300
F3258       F  0.61429470  0.32645128  0.84729768    -0.18300
F3259       F  0.63081515  0.39789643  0.75856703    -0.20700
F3260       F  0.60905068  0.41856441  0.75244598    -0.21900
F3261       F  0.60389068  0.38972198  0.73151466    -0.19100
F3262       F  0.56851339  0.38541016  0.94993761    -0.19200
F3263       F  0.59628657  0.39041207  0.97649645    -0.23000
F3264       F  0.58848526  0.36281389  0.95118538    -0.24600
C3265       C  0.58439098  0.34750463  0.16835140    -0.11400
C3266       C  0.56741870  0.34239295  0.15235244     0.11200
C3267       C  0.56595757  0.32843282  0.12004326    -0.03200
C3268       C  0.58177864  0.31996938  0.10471396    -0.06000
C3269       C  0.59898413  0.32532642  0.11966671    -0.16700
C3270       C  0.60030280  0.33922774  0.15286868     0.02200
C3271       C  0.55155727  0.35291362  0.16771311     0.12100
C3272       C  0.54778901  0.32284589  0.10098611     0.62700
H3273       H  0.58079533  0.30951218  0.07930164     0.12200
C3274       C  0.61817760  0.34555738  0.17228870     0.54900
H3275       H  0.58505158  0.35849013  0.19242953     0.07900
C3276       C  0.54317664  0.34996715  0.21016526    -0.05900
C3277       C  0.52846006  0.36091530  0.22253207    -0.06600
C3278       C  0.52242213  0.37492105  0.19438424    -0.16200
C3279       C  0.53076781  0.37768069  0.15174729    -0.01800
C3280       C  0.54532230  0.36665799  0.13932222    -0.09300
C3281       C  0.55012926  0.33572550  0.24265298     0.65000
H3282       H  0.52196797  0.35907054  0.25507995     0.10400
C3283       C  0.52419297  0.39198658  0.11913688     0.63300
H3284       H  0.55217110  0.36880934  0.10735058     0.07800
F3285       F  0.61582256  0.35711794  0.20859229    -0.19700
F3286       F  0.62786300  0.35477032  0.13967322    -0.15900
F3287       F  0.62799899  0.33094174  0.18740685    -0.19400
F3288       F  0.54048448  0.33692868  0.07650344    -0.22800
F3289       F  0.53615233  0.31831286  0.13579013    -0.24300
F3290       F  0.54922037  0.30809827  0.07251118    -0.18300
F3291       F  0.53238643  0.39056374  0.07716131    -0.20700
F3292       F  0.52805399  0.40887529  0.13631862    -0.21900
F3293       F  0.50580958  0.39017154  0.11299951    -0.19100
F3294       F  0.53904863  0.33387848  0.28012424    -0.19200
F3295       F  0.56712447  0.34051001  0.25750361    -0.23000
F3296       F  0.55108364  0.31917140  0.22128871    -0.24600
C3297       C  0.77787907  0.32122014  0.04972936    -0.11400
C3298       C  0.76521053  0.31405126  0.01949503     0.11200
C3299       C  0.77083107  0.30815619  0.97621511    -0.03200
C3300       C  0.78932278  0.30798196  0.96623121    -0.06000
C3301       C  0.80217342  0.31416493  0.99729375    -0.16700
C3302       C  0.79642547  0.32154867  0.03919372     0.02200
C3303       C  0.74620442  0.31199869  0.03439239     0.12100
C3304       C  0.75732686  0.30202985  0.94084301     0.62700
H3305       H  0.79396230  0.30277061  0.93405233     0.12200
C3306       C  0.80977267  0.32907409  0.07322005     0.54900
H3307       H  0.77312394  0.32609641  0.08214866     0.07900
C3308       C  0.74015854  0.29620187  0.05671572    -0.05900
C3309       C  0.72155040  0.29389977  0.06408996    -0.06600
C3310       C  0.70904274  0.30718528  0.05150970    -0.16200
C3311       C  0.71533143  0.32355865  0.03209849    -0.01800
C3312       C  0.73389513  0.32560030  0.02350081    -0.09300
C3313       C  0.75338039  0.28192200  0.07263235     0.65000
H3314       H  0.71659207  0.28168563  0.08001440     0.10400
C3315       C  0.70251899  0.33859757  0.01937436     0.63300
H3316       H  0.73897402  0.33770817  0.00732856     0.07800
F3317       F  0.80135995  0.33446471  0.11281387    -0.19700
F3318       F  0.81843150  0.34394790  0.05499940    -0.15900
F3319       F  0.82239941  0.31608532  0.08413395    -0.19400
F3320       F  0.74586306  0.31611665  0.93052507    -0.22800
F3321       F  0.74730659  0.28765881  0.95700458    -0.24300
F3322       F  0.76571306  0.29663663  0.90121615    -0.18300
F3323       F  0.69479588  0.34559846  0.05816028    -0.20700
F3324       F  0.68924278  0.33197603  0.99113192    -0.21900
F3325       F  0.71121951  0.35254256  0.99700686    -0.19100
F3326       F  0.74473359  0.26766691  0.09386033    -0.19200
F3327       F  0.76530211  0.28946534  0.10314237    -0.23000
F3328       F  0.76296454  0.27513066  0.03630221    -0.24600
C3329       C  0.90549386  0.22977954  0.89721432    -0.11400
C3330       C  0.91728082  0.22245034  0.92923433     0.11200
C3331       C  0.91902804  0.23067762  0.97218384    -0.03200
C3332       C  0.90836857  0.24585108  0.98199220    -0.06000
C3333       C  0.89588915  0.25260189  0.95073081    -0.16700
C3334       C  0.89439696  0.24454851  0.90752755     0.02200
C3335       C  0.92755697  0.20614006  0.91607297     0.12100
C3336       C  0.93192873  0.22339909  0.00749321     0.62700
H3337       H  0.90939298  0.25236393  0.01466487     0.12200
C3338       C  0.88144314  0.25162841  0.87218858     0.54900
H3339       H  0.90478669  0.22346836  0.86422815     0.07900
C3340       C  0.91932407  0.18891772  0.91396179    -0.05900
C3341       C  0.92929793  0.17439710  0.89642639    -0.06600
C3342       C  0.94695884  0.17668741  0.88015695    -0.16200
C3343       C  0.95542005  0.19382581  0.88416295    -0.01800
C3344       C  0.94543597  0.20831665  0.90183512    -0.09300
C3345       C  0.89992843  0.18600509  0.92899578     0.65000
H3346       H  0.92301080  0.16126390  0.89320166     0.10400
C3347       C  0.97491648  0.19689331  0.87055976     0.63300
H3348       H  0.95133764  0.22168064  0.90331722     0.07800
F3349       F  0.86388036  0.24917622  0.88663230    -0.19700
F3350       F  0.88346808  0.24271700  0.83138355    -0.15900
F3351       F  0.88461381  0.26977914  0.86488067    -0.19400
F3352       F  0.94946440  0.22520523  0.99229558    -0.22800
F3353       F  0.92835560  0.20537453  0.01561437    -0.24300
F3354       F  0.93040166  0.23255463  0.04813551    -0.18300
F3355       F  0.97652464  0.19677775  0.82396929    -0.20700
F3356       F  0.98555503  0.18348341  0.88883820    -0.21900
F3357       F  0.98135513  0.21329476  0.88611853    -0.19100
F3358       F  0.89514046  0.16795134  0.92801120    -0.19200
F3359       F  0.88838033  0.19524318  0.90067074    -0.23000
F3360       F  0.89762000  0.19216130  0.97275226    -0.24600
C3361       C  0.88444377  0.35454584  0.16482977    -0.11400
C3362       C  0.88548530  0.37230465  0.14865714     0.11200
C3363       C  0.87728075  0.37681773  0.10718853    -0.03200
C3364       C  0.86995024  0.36293740  0.08093767    -0.06000
C3365       C  0.87109913  0.34468923  0.09401742    -0.16700
C3366       C  0.87718341  0.34053037  0.13847714     0.02200
C3367       C  0.89885677  0.38423827  0.17029856     0.12100
C3368       C  0.87692640  0.39576434  0.08769823     0.62700
H3369       H  0.86445266  0.36643864  0.04817359     0.12200
C3370       C  0.87697048  0.32152125  0.15790835     0.54900
H3371       H  0.89083717  0.35145193  0.19682110     0.07900
C3372       C  0.89545434  0.39337013  0.21131538    -0.05900
C3373       C  0.90993519  0.40192631  0.23319328    -0.06600
C3374       C  0.92757920  0.40069675  0.21607035    -0.16200
C3375       C  0.93059427  0.39293040  0.17298410    -0.01800
C3376       C  0.91604078  0.38487062  0.15061370    -0.09300
C3377       C  0.87683228  0.39333506  0.23254814     0.65000
H3378       H  0.90787814  0.40802884  0.26608576     0.10400
C3379       C  0.94917847  0.39223327  0.15157174     0.63300
H3380       H  0.91823130  0.37791424  0.11883056     0.07800
F3381       F  0.88009796  0.32154339  0.20407804    -0.19700
F3382       F  0.89027548  0.31121480  0.13779202    -0.15900
F3383       F  0.86029836  0.31362783  0.15087101    -0.19400
F3384       F  0.88751929  0.39635475  0.04917852    -0.22800
F3385       F  0.88307988  0.40869823  0.11757330    -0.24300
F3386       F  0.85942471  0.40015451  0.07614761    -0.18300
F3387       F  0.95907003  0.37851017  0.17103150    -0.20700
F3388       F  0.95802716  0.40849455  0.15765961    -0.21900
F3389       F  0.94815631  0.38900451  0.10551253    -0.19100
F3390       F  0.87607441  0.40421754  0.27053706    -0.19200
F3391       F  0.87218253  0.37598434  0.24526288    -0.23000
F3392       F  0.86436268  0.39964728  0.20170676    -0.24600
C3393       C  0.93291558  0.35840359  0.94003106    -0.11400
C3394       C  0.94097638  0.35137434  0.90093352     0.11200
C3395       C  0.93395612  0.33548736  0.88093095    -0.03200
C3396       C  0.91843496  0.32754904  0.89990657    -0.06000
C3397       C  0.91010615  0.33492580  0.93819026    -0.16700
C3398       C  0.91736296  0.35054136  0.95879198     0.02200
C3399       C  0.95636561  0.36137872  0.88077276     0.12100
C3400       C  0.94283382  0.32702452  0.83980799     0.62700
H3401       H  0.91271608  0.31544500  0.88521593     0.12200
C3402       C  0.90824064  0.35921858  0.99923438     0.54900
H3403       H  0.93871450  0.37039020  0.95509570     0.07900
C3404       C  0.95368053  0.37701472  0.85421402    -0.05900
C3405       C  0.96877742  0.38562097  0.83525074    -0.06600
C3406       C  0.98641389  0.37933516  0.84252758    -0.16200
C3407       C  0.98909389  0.36382329  0.87001973    -0.01800
C3408       C  0.97389630  0.35517746  0.88887960    -0.09300
C3409       C  0.93495956  0.38469916  0.84631304     0.65000
H3410       H  0.96687826  0.39755997  0.81468472     0.10400
C3411       C  0.00777447  0.35658793  0.88047328     0.63300
H3412       H  0.97552769  0.34340321  0.91018314     0.07800
F3413       F  0.91694061  0.37485162  0.01265566    -0.19700
F3414       F  0.90814151  0.34738983  0.03540654    -0.15900
F3415       F  0.89071841  0.36360387  0.98798276    -0.19400
F3416       F  0.96018005  0.32177977  0.85040353    -0.22800
F3417       F  0.94343613  0.33934040  0.80468756    -0.24300
F3418       F  0.93356326  0.31192282  0.82506814    -0.18300
F3419       F  0.00718981  0.34251662  0.91128325    -0.20700
F3420       F  0.01835754  0.37012202  0.89873356    -0.21900
F3421       F  0.01570141  0.35018913  0.84126660    -0.19100
F3422       F  0.93532077  0.39936253  0.81727375    -0.19200
F3423       F  0.92761879  0.39037849  0.88688259    -0.23000
F3424       F  0.92390951  0.37168281  0.82756911    -0.24600
C3425       C  0.65858211  0.28828691  0.38257557    -0.11400
C3426       C  0.65981666  0.27591918  0.34671783     0.11200
C3427       C  0.65971685  0.25716732  0.35582842    -0.03200
C3428       C  0.65822996  0.25146082  0.40078685    -0.06000
C3429       C  0.65565258  0.26368202  0.43631910    -0.16700
C3430       C  0.65601237  0.28245223  0.42754349     0.02200
C3431       C  0.66057539  0.28274792  0.29962039     0.12100
C3432       C  0.66043732  0.24317506  0.31826004     0.62700
H3433       H  0.65867046  0.23720543  0.40859604     0.12200
C3434       C  0.65298238  0.29613876  0.46491733     0.54900
H3435       H  0.65908515  0.30255610  0.37479225     0.07900
C3436       C  0.64493918  0.28881494  0.27691064    -0.05900
C3437       C  0.64616701  0.29264956  0.23049898    -0.06600
C3438       C  0.66227987  0.29022283  0.20631559    -0.16200
C3439       C  0.67805475  0.28477245  0.22934130    -0.01800
C3440       C  0.67697782  0.28150808  0.27614533    -0.09300
C3441       C  0.62694635  0.29072900  0.30116119     0.65000
H3442       H  0.63429124  0.29690050  0.21217761     0.10400
C3443       C  0.69588367  0.28242068  0.20479202     0.63300
H3444       H  0.68878443  0.27712124  0.29455623     0.07800
F3445       F  0.65215501  0.31357088  0.44819852    -0.19700
F3446       F  0.66698209  0.29531218  0.49559358    -0.15900
F3447       F  0.63690167  0.29250751  0.48695759    -0.19400
F3448       F  0.67688987  0.24395828  0.29638315    -0.22800
F3449       F  0.64683699  0.24639073  0.28746258    -0.24300
F3450       F  0.65820109  0.22580558  0.33468658    -0.18300
F3451       F  0.70988575  0.27921178  0.23456398    -0.20700
F3452       F  0.69994350  0.29787442  0.18051856    -0.21900
F3453       F  0.69482592  0.26791425  0.17555405    -0.19100
F3454       F  0.61335070  0.29596340  0.27198828    -0.19200
F3455       F  0.62826879  0.30364703  0.33466317    -0.23000
F3456       F  0.62200699  0.27443846  0.32041301    -0.24600
C3457       C  0.67827717  0.24179564  0.77364687    -0.11400
C3458       C  0.66221585  0.23865511  0.79745717     0.11200
C3459       C  0.64749829  0.23033594  0.77525152    -0.03200
C3460       C  0.64949297  0.22525726  0.72963430    -0.06000
C3461       C  0.66517429  0.22939286  0.70490596    -0.16700
C3462       C  0.67997285  0.23758304  0.72739163     0.02200
C3463       C  0.66027933  0.24691607  0.84300030     0.12100
C3464       C  0.62933806  0.22808908  0.79854050     0.62700
H3465       H  0.63818779  0.21935101  0.71184791     0.12200
C3466       C  0.69729543  0.24245950  0.70273756     0.54900
H3467       H  0.68913924  0.24865353  0.79103157     0.07900
C3468       C  0.66569009  0.23825750  0.88335128    -0.05900
C3469       C  0.66263306  0.24705869  0.92504925    -0.06600
C3470       C  0.65486126  0.26439614  0.92729187    -0.16200
C3471       C  0.65075383  0.27345019  0.88602052    -0.01800
C3472       C  0.65340191  0.26441529  0.84482718    -0.09300
C3473       C  0.67491041  0.22000466  0.88204925     0.65000
H3474       H  0.66617987  0.24033049  0.95628638     0.10400
C3475       C  0.64367248  0.29259406  0.88462430     0.63300
H3476       H  0.64989178  0.27090251  0.81319837     0.07800
F3477       F  0.71099249  0.24669468  0.73262924    -0.19700
F3478       F  0.69446469  0.25732541  0.67538261    -0.15900
F3479       F  0.70300330  0.22808171  0.67658952    -0.19400
F3480       F  0.62201946  0.24486462  0.80734631    -0.22800
F3481       F  0.63130670  0.21886804  0.83883835    -0.24300
F3482       F  0.61725645  0.21858649  0.77201532    -0.18300
F3483       F  0.64387620  0.29968414  0.84127031    -0.20700
F3484       F  0.65433392  0.30360743  0.91128631    -0.21900
F3485       F  0.62603838  0.29273025  0.89986407    -0.19100
F3486       F  0.67915094  0.21388801  0.92496762    -0.19200
F3487       F  0.69071887  0.22131255  0.85739725    -0.23000
F3488       F  0.66382442  0.20737928  0.86189110    -0.24600
C3489       C  0.61745870  0.14412391  0.32038808    -0.11400
C3490       C  0.61403444  0.14645675  0.36656595     0.11200
C3491       C  0.59805648  0.13938165  0.38579370    -0.03200
C3492       C  0.58525137  0.13144105  0.35717742    -0.06000
C3493       C  0.58759230  0.13098382  0.30998756    -0.16700
C3494       C  0.60450969  0.13646082  0.29137094     0.02200
C3495       C  0.62457601  0.16028745  0.39108324     0.12100
C3496       C  0.59389922  0.14161174  0.43584348     0.62700
H3497       H  0.57261951  0.12682673  0.37130422     0.12200
C3498       C  0.60860707  0.13563948  0.24104445     0.54900
H3499       H  0.62979329  0.14978594  0.30673779     0.07900
C3500       C  0.63892922  0.15657965  0.42103888    -0.05900
C3501       C  0.64449038  0.17025192  0.45109342    -0.06600
C3502       C  0.63634664  0.18740677  0.45112904    -0.16200
C3503       C  0.62374891  0.19163287  0.41619912    -0.01800
C3504       C  0.61814840  0.17787986  0.38708343    -0.09300
C3505       C  0.64865789  0.13864056  0.42280534     0.65000
H3506       H  0.65467676  0.16715886  0.47612213     0.10400
C3507       C  0.61551333  0.21022139  0.40945668     0.63300
H3508       H  0.60756139  0.18044407  0.36271873     0.07800
F3509       F  0.62596868  0.14131561  0.23119155    -0.19700
F3510       F  0.59689040  0.14673501  0.21789668    -0.15900
F3511       F  0.60689239  0.11808734  0.22578723    -0.19400
F3512       F  0.59163542  0.15968016  0.44594711    -0.22800
F3513       F  0.60791676  0.13480230  0.46129539    -0.24300
F3514       F  0.57832891  0.13256616  0.44831960    -0.18300
F3515       F  0.62876460  0.22320611  0.41125375    -0.20700
F3516       F  0.60260506  0.21349925  0.44222894    -0.21900
F3517       F  0.60726754  0.21182938  0.36766875    -0.19100
F3518       F  0.64692374  0.13126136  0.46556820    -0.19200
F3519       F  0.66674932  0.14146156  0.41381578    -0.23000
F3520       F  0.64220141  0.12634488  0.39165682    -0.24600
C3521       C  0.56868469  0.19527739  0.63845726    -0.11400
C3522       C  0.56962445  0.17640809  0.63965707     0.11200
C3523       C  0.58587140  0.16773815  0.62725930    -0.03200
C3524       C  0.60062272  0.17840182  0.61345801    -0.06000
C3525       C  0.59981946  0.19740463  0.61227976    -0.16700
C3526       C  0.58361919  0.20604673  0.62649949     0.02200
C3527       C  0.55339718  0.16624031  0.65521084     0.12100
C3528       C  0.58766692  0.14731999  0.62864571     0.62700
H3529       H  0.61289035  0.17180679  0.60260735     0.12200
C3530       C  0.58193344  0.22643702  0.63047771     0.54900
H3531       H  0.55600669  0.20155185  0.64746229     0.07900
C3532       C  0.54791917  0.16629022  0.70112704    -0.05900
C3533       C  0.53194228  0.15729354  0.71312680    -0.06600
C3534       C  0.52180318  0.14741068  0.68162201    -0.16200
C3535       C  0.52749164  0.14699515  0.63571495    -0.01800
C3536       C  0.54299112  0.15690728  0.62316792    -0.09300
C3537       C  0.55899403  0.17555709  0.73760217     0.65000
H3538       H  0.52727935  0.15784186  0.74775512     0.10400
C3539       C  0.51711816  0.13659836  0.59991686     0.63300
H3540       H  0.54721822  0.15738531  0.58810684     0.07800
F3541       F  0.59617821  0.23323975  0.65535463    -0.19700
F3542       F  0.56617179  0.23143029  0.65227381    -0.15900
F3543       F  0.58179527  0.23420985  0.58795188    -0.19400
F3544       F  0.57634926  0.13957067  0.59709833    -0.22800
F3545       F  0.58318487  0.14098310  0.67122804    -0.24300
F3546       F  0.60507008  0.14178632  0.61902777    -0.18300
F3547       F  0.49922769  0.14179134  0.60028322    -0.20700
F3548       F  0.51826322  0.11828724  0.60841419    -0.21900
F3549       F  0.52390154  0.13966771  0.55690668    -0.19100
F3550       F  0.55231987  0.17204467  0.78051552    -0.19200
F3551       F  0.55880700  0.19401849  0.73126870    -0.23000
F3552       F  0.57658891  0.16948326  0.73598677    -0.24600
C3553       C  0.61578531  0.30914724  0.64687931    -0.11400
C3554       C  0.59760410  0.30993243  0.63459635     0.11200
C3555       C  0.58983929  0.29585669  0.60913339    -0.03200
C3556       C  0.60075386  0.28126752  0.59664062    -0.06000
C3557       C  0.61913980  0.28038539  0.60832619    -0.16700
C3558       C  0.62675541  0.29444136  0.63502321     0.02200
C3559       C  0.58714780  0.32587560  0.64891341     0.12100
C3560       C  0.57024374  0.29642399  0.59433650     0.62700
H3561       H  0.59493251  0.27049770  0.57674038     0.12200
C3562       C  0.64622035  0.29427288  0.65100035     0.54900
H3563       H  0.62126933  0.32027885  0.66619201     0.07900
C3564       C  0.58058321  0.32764844  0.69365213    -0.05900
C3565       C  0.57177593  0.34368140  0.70567031    -0.06600
C3566       C  0.56957811  0.35781779  0.67459126    -0.16200
C3567       C  0.57567178  0.35582247  0.62958140    -0.01800
C3568       C  0.58459121  0.33982386  0.61751513    -0.09300
C3569       C  0.58297936  0.31274483  0.72850677     0.65000
H3570       H  0.56689650  0.34551971  0.73993701     0.10400
C3571       C  0.57237854  0.37030449  0.59444764     0.63300
H3572       H  0.58987902  0.33814416  0.58358916     0.07800
F3573       F  0.65045163  0.30944607  0.67615725    -0.19700
F3574       F  0.65775668  0.29383492  0.61419336    -0.15900
F3575       F  0.64911721  0.27936997  0.67823634    -0.19400
F3576       F  0.56776720  0.31045536  0.56418597    -0.22800
F3577       F  0.55911564  0.29896117  0.63133470    -0.24300
F3578       F  0.56503684  0.28058076  0.57325599    -0.18300
F3579       F  0.58259800  0.38538460  0.60443069    -0.20700
F3580       F  0.55430496  0.37486349  0.59426013    -0.21900
F3581       F  0.57697094  0.36450591  0.55144849    -0.19100
F3582       F  0.57473550  0.31694214  0.76921113    -0.19200
F3583       F  0.60108508  0.31002128  0.73680157    -0.23000
F3584       F  0.57549212  0.29686748  0.71276236    -0.24600
C3585       C  0.85878334  0.24480302  0.16596112    -0.11400
C3586       C  0.84481728  0.25199154  0.19226941     0.11200
C3587       C  0.83280130  0.26468659  0.17306408    -0.03200
C3588       C  0.83562802  0.27025135  0.12808434    -0.06000
C3589       C  0.85051586  0.26417979  0.10312689    -0.16700
C3590       C  0.86189400  0.25069084  0.12147656     0.02200
C3591       C  0.84525666  0.24841621  0.24156662     0.12100
C3592       C  0.81778515  0.27314771  0.20080617     0.62700
H3593       H  0.82709037  0.28052045  0.11335808     0.12200
C3594       C  0.87786794  0.24315940  0.09547319     0.54900
H3595       H  0.86804727  0.23541932  0.18164642     0.07900
C3596       C  0.83858503  0.23233883  0.26133025    -0.05900
C3597       C  0.84030187  0.23000187  0.30845439    -0.06600
C3598       C  0.84878980  0.24303555  0.33557892    -0.16200
C3599       C  0.85614517  0.25874707  0.31517166    -0.01800
C3600       C  0.85408977  0.26117687  0.26843388    -0.09300
C3601       C  0.83016197  0.21761901  0.23263530     0.65000
H3602       H  0.83520640  0.21787019  0.32449556     0.10400
C3603       C  0.86698986  0.27243298  0.34188490     0.63300
H3604       H  0.85964622  0.27303499  0.25204027     0.07800
F3605       F  0.88368125  0.22700010  0.11384031    -0.19700
F3606       F  0.89200428  0.25531838  0.09694011    -0.15900
F3607       F  0.87320497  0.23995426  0.05092003    -0.19400
F3608       F  0.82505017  0.28372522  0.23466578    -0.22800
F3609       F  0.80721640  0.25983496  0.22013900    -0.24300
F3610       F  0.80676750  0.28395965  0.17456470    -0.18300
F3611       F  0.87451292  0.28557364  0.31433974    -0.20700
F3612       F  0.88091245  0.26375679  0.36395534    -0.21900
F3613       F  0.85599008  0.28098944  0.37289974    -0.19100
F3614       F  0.82346758  0.20364033  0.25888321    -0.19200
F3615       F  0.84296887  0.21059850  0.20356636    -0.23000
F3616       F  0.81611083  0.22457017  0.20752379    -0.24600
C3617       C  0.85458406  0.29429863  0.66120720    -0.11400
C3618       C  0.85226132  0.28339311  0.69945952     0.11200
C3619       C  0.85210356  0.26438674  0.69483582    -0.03200
C3620       C  0.85492704  0.25687793  0.65181695    -0.06000
C3621       C  0.85787419  0.26768191  0.61357147    -0.16700
C3622       C  0.85765649  0.28679814  0.61811710     0.02200
C3623       C  0.85125839  0.29200763  0.74467858     0.12100
C3624       C  0.84912932  0.25211321  0.73536607     0.62700
H3625       H  0.85470944  0.24243356  0.64762662     0.12200
C3626       C  0.86157225  0.29929513  0.57847735     0.54900
H3627       H  0.85443967  0.30879118  0.66573234     0.07900
C3628       C  0.86707613  0.29707555  0.76828217    -0.05900
C3629       C  0.86563966  0.30148677  0.81434412    -0.06600
C3630       C  0.84903519  0.30086966  0.83682854    -0.16200
C3631       C  0.83306999  0.29742958  0.81247615    -0.01800
C3632       C  0.83441864  0.29320035  0.76620442    -0.09300
C3633       C  0.88543730  0.29706130  0.74543029     0.65000
H3634       H  0.87760805  0.30453005  0.83384317     0.10400
C3635       C  0.81488933  0.29769264  0.83593943     0.63300
H3636       H  0.82246870  0.28971740  0.74713794     0.07800
F3637       F  0.86288073  0.31714013  0.59188489    -0.19700
F3638       F  0.84789670  0.29815412  0.54695226    -0.15900
F3639       F  0.87776739  0.29455588  0.55857015    -0.19400
F3640       F  0.83195860  0.25460910  0.75241698    -0.22800
F3641       F  0.86154152  0.25605467  0.76862919    -0.24300
F3642       F  0.85097703  0.23408396  0.72422478    -0.18300
F3643       F  0.80091794  0.29459224  0.80599512    -0.20700
F3644       F  0.81223023  0.31437189  0.85579703    -0.21900
F3645       F  0.81432268  0.28448991  0.86899679    -0.19100
F3646       F  0.89901230  0.30207741  0.77490870    -0.19200
F3647       F  0.88548348  0.30914004  0.70977999    -0.23000
F3648       F  0.88934139  0.28000207  0.72930594    -0.24600
C3649       C  0.77564202  0.23257892  0.53849135    -0.11400
C3650       C  0.76624600  0.22016498  0.51174297     0.11200
C3651       C  0.77546014  0.21073710  0.47715380    -0.03200
C3652       C  0.79401368  0.21396545  0.47090296    -0.06000
C3653       C  0.80349788  0.22667126  0.49710297    -0.16700
C3654       C  0.79414792  0.23600245  0.53224114     0.02200
C3655       C  0.74643212  0.21861036  0.51870058     0.12100
C3656       C  0.76562086  0.19775680  0.44605003     0.62700
H3657       H  0.80111125  0.20700884  0.44407359     0.12200
C3658       C  0.80334619  0.24950117  0.56344064     0.54900
H3659       H  0.76812284  0.23992379  0.56393972     0.07900
C3660       C  0.73875792  0.20919117  0.55580153    -0.05900
C3661       C  0.71997146  0.21014673  0.56274382    -0.06600
C3662       C  0.70880071  0.22023349  0.53396314    -0.16200
C3663       C  0.71645420  0.22873210  0.49522539    -0.01800
C3664       C  0.73522140  0.22805428  0.48897772    -0.09300
C3665       C  0.75039121  0.19838794  0.58815058     0.65000
H3666       H  0.71395973  0.20364059  0.59194004     0.10400
C3667       C  0.70499414  0.23816384  0.45982239     0.63300
H3668       H  0.74141209  0.23532885  0.46117483     0.07800
F3669       F  0.79217119  0.25487300  0.59849800    -0.19700
F3670       F  0.80813064  0.26480660  0.53940951    -0.15900
F3671       F  0.81851455  0.24181657  0.58250933    -0.19400
F3672       F  0.75366209  0.20718020  0.41922401    -0.22800
F3673       F  0.75622292  0.18513202  0.47124554    -0.24300
F3674       F  0.77738708  0.18860519  0.41785610    -0.18300
F3675       F  0.69857472  0.25434686  0.47646584    -0.20700
F3676       F  0.69067937  0.22719701  0.44787968    -0.21900
F3677       F  0.71476238  0.24187444  0.42090865    -0.19100
F3678       F  0.74014144  0.18954891  0.62052827    -0.19200
F3679       F  0.76227834  0.20967796  0.61030940    -0.23000
F3680       F  0.76004624  0.18557139  0.56438432    -0.24600
C3681       C  0.87900623  0.17495601  0.64501301    -0.11400
C3682       C  0.88999489  0.16144290  0.62676961     0.11200
C3683       C  0.88894277  0.15738482  0.58013550    -0.03200
C3684       C  0.87927634  0.16921458  0.55188460    -0.06000
C3685       C  0.87077523  0.18458775  0.56961424    -0.16700
C3686       C  0.86935815  0.18669757  0.61695244     0.02200
C3687       C  0.90482083  0.15460641  0.65544476     0.12100
C3688       C  0.89881069  0.14128707  0.56042567     0.62700
H3689       H  0.87992880  0.16761598  0.51548776     0.12200
C3690       C  0.85923492  0.20203779  0.63906851     0.54900
H3691       H  0.87941547  0.17751733  0.68112125     0.07900
C3692       C  0.92065997  0.16501889  0.66140814    -0.05900
C3693       C  0.93349118  0.15912189  0.69270341    -0.06600
C3694       C  0.93125966  0.14307912  0.71744403    -0.16200
C3695       C  0.91607797  0.13195571  0.70881632    -0.01800
C3696       C  0.90281844  0.13816471  0.67845425    -0.09300
C3697       C  0.92399954  0.18240730  0.63509615     0.65000
H3698       H  0.94527152  0.16737973  0.69897479     0.10400
C3699       C  0.91422877  0.11339852  0.72992126     0.63300
H3700       H  0.89069593  0.13034001  0.67282226     0.07800
F3701       F  0.87150284  0.21351543  0.65928136    -0.19700
F3702       F  0.84777539  0.19519569  0.67186551    -0.15900
F3703       F  0.84892583  0.21171416  0.60863201    -0.19400
F3704       F  0.89294636  0.12570705  0.58166176    -0.22800
F3705       F  0.91717070  0.14308905  0.56687374    -0.24300
F3706       F  0.89566575  0.13948347  0.51451619    -0.18300
F3707       F  0.91049823  0.11495258  0.77557817    -0.20700
F3708       F  0.93009734  0.10391807  0.72398837    -0.21900
F3709       F  0.90048731  0.10354731  0.71013356    -0.19100
F3710       F  0.94081983  0.18965700  0.64408137    -0.19200
F3711       F  0.91125393  0.19519219  0.64649199    -0.23000
F3712       F  0.92310697  0.17908149  0.58915621    -0.24600
C3713       C  0.96914315  0.18246416  0.33762763    -0.11400
C3714       C  0.96054695  0.17700922  0.37759505     0.11200
C3715       C  0.96670665  0.16153505  0.40096643    -0.03200
C3716       C  0.98210601  0.15257136  0.38464946    -0.06000
C3717       C  0.99115768  0.15838696  0.34545445    -0.16700
C3718       C  0.98430414  0.17328969  0.32069863     0.02200
C3719       C  0.94446971  0.18721560  0.39285914     0.12100
C3720       C  0.95687579  0.15441551  0.44251552     0.62700
H3721       H  0.98722329  0.14087311  0.40241783     0.12200
C3722       C  0.99235269  0.17903687  0.27565004     0.54900
H3723       H  0.96376362  0.19399463  0.31966665     0.07900
C3724       C  0.94585897  0.20286430  0.41980417    -0.05900
C3725       C  0.92994084  0.21105759  0.43541237    -0.06600
C3726       C  0.91270399  0.20422511  0.42470619    -0.16200
C3727       C  0.91147978  0.18895978  0.39535134    -0.01800
C3728       C  0.92750502  0.18089767  0.37981843    -0.09300
C3729       C  0.96409903  0.21081446  0.43204382     0.65000
H3730       H  0.93097526  0.22277579  0.45704286     0.10400
C3731       C  0.89362745  0.18080616  0.38044521     0.63300
H3732       H  0.92700442  0.16913797  0.35813452     0.07800
F3733       F  0.00919553  0.18647545  0.28227379    -0.19700
F3734       F  0.98178869  0.19175699  0.25401571    -0.15900
F3735       F  0.99380852  0.16428834  0.24736971    -0.19400
F3736       F  0.93945798  0.14961704  0.43116139    -0.22800
F3737       F  0.95630119  0.16752230  0.47569579    -0.24300
F3738       F  0.96524379  0.13934755  0.46040827    -0.18300
F3739       F  0.89596783  0.16705068  0.34931440    -0.20700
F3740       F  0.88310014  0.19388518  0.36017504    -0.21900
F3741       F  0.88469757  0.17357070  0.41739674    -0.19100
F3742       F  0.96245291  0.22601803  0.45890815    -0.19200
F3743       F  0.97323768  0.21569486  0.39309093    -0.23000
F3744       F  0.97421130  0.19826390  0.45540129    -0.24600
C3745       C  0.92438038  0.33665547  0.36516596    -0.11400
C3746       C  0.92538484  0.33424715  0.41203853     0.11200
C3747       C  0.93533372  0.34665822  0.43858474    -0.03200
C3748       C  0.94325772  0.36176239  0.41709736    -0.06000
C3749       C  0.94192485  0.36429332  0.37016062    -0.16700
C3750       C  0.93253225  0.35146259  0.34363899     0.02200
C3751       C  0.91563979  0.31850283  0.43153363     0.12100
C3752       C  0.93812154  0.34353828  0.48882042     0.62700
H3753       H  0.95091737  0.37147903  0.43654797     0.12200
C3754       C  0.93088569  0.35355757  0.29281814     0.54900
H3755       H  0.91695081  0.32680444  0.34557205     0.07900
C3756       C  0.89688623  0.31913571  0.44033002    -0.05900
C3757       C  0.88805597  0.30326725  0.45414982    -0.06600
C3758       C  0.89720589  0.28678149  0.45820984    -0.16200
C3759       C  0.91592437  0.28605460  0.44855555    -0.01800
C3760       C  0.92487813  0.30208226  0.43576005    -0.09300
C3761       C  0.88611005  0.33634546  0.43355244     0.65000
H3762       H  0.87372258  0.30352782  0.46114438     0.10400
C3763       C  0.92614655  0.26833389  0.44901505     0.63300
H3764       H  0.93910341  0.30184637  0.42751323     0.07800
F3765       F  0.92093640  0.33975161  0.27354875    -0.19700
F3766       F  0.94780640  0.35350866  0.27317630    -0.15900
F3767       F  0.92235733  0.36962663  0.28329234    -0.19400
F3768       F  0.94810523  0.32800751  0.49501969    -0.22800
F3769       F  0.92173629  0.34160205  0.51062583    -0.24300
F3770       F  0.94725787  0.35773480  0.50882608    -0.18300
F3771       F  0.91742781  0.25591744  0.42183011    -0.20700
F3772       F  0.92712274  0.26174428  0.49269302    -0.21900
F3773       F  0.94356088  0.27031196  0.43282690    -0.19100
F3774       F  0.86828424  0.33423770  0.44650123    -0.19200
F3775       F  0.88640423  0.34119018  0.38839825    -0.23000
F3776       F  0.89339797  0.35018916  0.45889930    -0.24600
loop_ 
_geom_bond_atom_site_label_1 
_geom_bond_atom_site_label_2 
_geom_bond_distance 
_geom_bond_site_symmetry_2 
_ccdc_geom_bond_type 
O1           C16   1.261       .  A
O1           Al9   1.915       .  S
C2           O12   1.258       .  A
C2            O3   1.262       .  A
C2         C3621   1.484       .  S
O3           Al5   1.905       .  S
O4            C6   1.261       .  A
O4           Al5   1.903       .  S
Al5          O13   1.923       .  S
Al5          O15   1.896       .  S
Al5          O14   1.788       .  S
C6           O19   1.258       .  A
C6         C3685   1.469       .  S
O7           C17   1.266       .  A
O7           Al9   1.929       .  S
O8           C21   1.260       .  A
O8          Al18   1.913       .  S
Al9          O22   1.893       .  S
Al9          O19   1.898       .  S
Al9          O14   1.797       .  S
O10          C17   1.255       .  A
O10         Al18   1.878       .  S
O11          C20   1.257       .  A
O11         Al18   1.881       .  S
O12         Al18   1.904       .  S
O13          C20   1.261       .  A
O14         Al18   1.788       .  S
O15          C16   1.262       .  A
C16        C3726   1.499       .  S
C17        C3653   1.495       .  S
C20        C3758   1.483       .  S
C21          O22   1.257       .  A
C21        C3598   1.479       .  S
O23          C38   1.269       .  A
O23         Al31   1.938       .  S
C24          O34   1.264       .  A
C24          O25   1.258       .  A
C24        C3429   1.474       .  S
O25         Al27   1.869       .  S
O26          C28   1.257       .  A
O26         Al27   1.895       .  S
Al27         O35   1.899       .  S
Al27         O37   1.891       .  S
Al27         O36   1.772       .  S
C28          O41   1.268       .  A
C28        C3502   1.492       .  S
O29          C39   1.267       .  A
O29         Al31   1.942       .  S
O30          C43   1.262       .  A
O30         Al40   1.910       .  S
Al31         O44   1.905       .  S
Al31         O41   1.931       .  S
Al31         O36   1.783       .  S
O32          C39   1.253       .  A
O32         Al40   1.873       .  S
O33          C42   1.255       .  A
O33         Al40   1.892       .  S
O34         Al40   1.929       .  S
O35          C42   1.259       .  A
O36         Al40   1.783       .  S
O37          C38   1.260       .  A
C38        C3525   1.498       .  S
C39        C3662   1.487       .  S
C42        C3557   1.488       .  S
C43          O44   1.263       .  A
C43        C3461   1.485       .  S
O45          C60   1.260       .  A
O45         Al53   1.906       .  S
C46          O56   1.262       .  A
C46          O47   1.258       .  A
C46        C3630   1.467       .  S
O47         Al49   1.882       .  S
O48          C50   1.263       .  A
O48         Al49   1.920       .  S
Al49         O57   1.912       .  S
Al49         O59   1.904   1_556  S
Al49         O58   1.780       .  S
C50          O63   1.260       .  A
C50        C3333   1.473       .  S
O51          C61   1.260       .  A
O51         Al53   1.912   1_556  S
O52          C65   1.264       .  A
O52         Al62   1.910   1_554  S
Al53         O66   1.891       .  S
Al53         O63   1.891   1_554  S
Al53         O58   1.781   1_554  S
O54          C61   1.260       .  A
O54         Al62   1.901       .  S
O55          C64   1.258       .  A
O55         Al62   1.897       .  S
O56         Al62   1.923       .  S
O57          C64   1.262       .  A
O58         Al62   1.785       .  S
O59          C60   1.261       .  A
C60        C3589   1.475       .  S
C61        C3397   1.470       .  S
C64        C3301   1.479       .  S
C65          O66   1.258       .  A
C65        C3365   1.490       .  S
O67          C82   1.260       .  A
O67         Al75   1.886   1_556  S
C68          O78   1.259       .  A
C68          O69   1.265       .  A
C68        C3438   1.475       .  S
O69         Al71   1.920       .  S
O70          C72   1.254       .  A
O70         Al71   1.893       .  S
Al71         O79   1.893       .  S
Al71         O81   1.932       .  S
Al71         O80   1.794       .  S
C72          O85   1.257       .  A
C72        C3205   1.490       .  S
O73          C83   1.261       .  A
O73         Al75   1.902       .  S
O74          C87   1.263       .  A
O74         Al84   1.908       .  S
Al75         O88   1.906       .  S
Al75         O85   1.897       .  S
Al75         O80   1.784       .  S
O76          C83   1.259       .  A
O76         Al84   1.916       .  S
O77          C86   1.259       .  A
O77         Al84   1.915       .  S
O78         Al84   1.879       .  S
O79          C86   1.257       .  A
O80         Al84   1.795       .  S
O81          C82   1.267   1_554  A
C82        C3470   1.499       .  S
C83        C3269   1.494       .  S
C86        C3310   1.485       .  S
C87          O88   1.264       .  A
C87        C3237   1.485   1_554  S
O89         C104   1.258       .  A
O89         Al97   1.873       .  S
C90         O100   1.259       .  A
C90          O91   1.259       .  A
C90        C3109   1.487       .  S
O91         Al93   1.907       .  S
O92          C94   1.259       .  A
O92         Al93   1.907       .  S
Al93        O101   1.886       .  S
Al93        O103   1.930       .  S
Al93        O102   1.787       .  S
C94         O107   1.260       .  A
C94        C3077   1.492       .  S
O95         C105   1.258       .  A
O95         Al97   1.876       .  S
O96         C109   1.256       .  A
O96        Al106   1.896       .  S
Al97        O110   1.902       .  S
Al97        O107   1.912       .  S
Al97        O102   1.788       .  S
O98         C105   1.266       .  A
O98        Al106   1.926       .  S
O99         C108   1.263       .  A
O99        Al106   1.922       .  S
O100       Al106   1.887       .  S
O101        C108   1.259       .  A
O102       Al106   1.792       .  S
O103        C104   1.265       .  A
C104       C3141   1.474       .  S
C105       C3566   1.470       .  S
C108       C3173   1.478       .  S
C109        O110   1.259       .  A
C109       C3246   1.474       .  S
O111        C126   1.258       .  A
O111       Al119   1.887       .  S
C112        O122   1.260       .  A
C112        O113   1.259       .  A
C112       C3013   1.478       .  S
O113       Al115   1.907       .  S
O114        C116   1.260       .  A
O114       Al115   1.894       .  S
Al115       O123   1.891       .  S
Al115       O125   1.901       .  S
Al115       O124   1.791       .  S
C116        O129   1.257       .  A
C116       C2981   1.473       .  S
O117        C127   1.260       .  A
O117       Al119   1.892       .  S
O118        C131   1.263       .  A
O118       Al128   1.906       .  S
Al119       O132   1.898       .  S
Al119       O129   1.899       .  S
Al119       O124   1.783       .  S
O120        C127   1.258       .  A
O120       Al128   1.911       .  S
O121        C130   1.261       .  A
O121       Al128   1.920       .  S
O122       Al128   1.893       .  S
O123        C130   1.259       .  A
O124       Al128   1.792       .  S
O125        C126   1.260       .  A
C126       C3045   1.472       .  S
C127       C2917   1.488       .  S
C130       C3182   1.476       .  S
C131        O132   1.260       .  A
C131       C2958   1.475       .  S
O133        C148   1.259       .  A
O133       Al141   1.905       .  S
C134        O144   1.256       .  A
C134        O135   1.260       .  A
C134       C3118   1.480       .  S
O135       Al137   1.905       .  S
O136        C138   1.261       .  A
O136       Al137   1.889       .  S
Al137       O145   1.898       .  S
Al137       O147   1.899       .  S
Al137       O146   1.789       .  S
C138        O151   1.265       .  A
C138       C2862   1.489       .  S
O139        C149   1.257       .  A
O139       Al141   1.894       .  S
O140        C153   1.258       .  A
O140       Al150   1.873       .  S
Al141       O154   1.929       .  S
Al141       O151   1.920       .  S
Al141       O146   1.795       .  S
O142        C149   1.260       .  A
O142       Al150   1.909       .  S
O143        C152   1.263       .  A
O143       Al150   1.921       .  S
O144       Al150   1.891       .  S
O145        C152   1.260       .  A
O146       Al150   1.789       .  S
O147        C148   1.258       .  A
C148       C2821   1.482       .  S
C149       C2885   1.480       .  S
C152       C3278   1.480       .  S
C153        O154   1.263       .  A
C153       C3150   1.498       .  S
O155        C170   1.263       .  A
O155       Al163   1.926       .  S
C156        O166   1.261       .  A
C156        O157   1.259       .  A
C156       C3022   1.486       .  S
O157       Al159   1.882       .  S
O158        C160   1.264       .  A
O158       Al159   1.903       .  S
Al159       O167   1.915       .  S
Al159       O169   1.889       .  S
Al159       O168   1.779       .  S
C160        O173   1.261       .  A
C160       C2798   1.487       .  S
O161        C171   1.261       .  A
O161       Al163   1.920       .  S
O162        C175   1.260       .  A
O162       Al172   1.912       .  S
Al163       O176   1.888       .  S
Al163       O173   1.904       .  S
Al163       O168   1.784       .  S
O164        C171   1.260       .  A
O164       Al172   1.891       .  S
O165        C174   1.257       .  A
O165       Al172   1.895       .  S
O166       Al172   1.920       .  S
O167        C174   1.260       .  A
O168       Al172   1.782       .  S
O169        C170   1.259       .  A
C170       C2757   1.485       .  S
C171       C2894   1.491       .  S
C174       C2734   1.471       .  S
C175        O176   1.262       .  A
C175       C3054   1.490       .  S
O177        C192   1.257       .  A
O177       Al185   1.890       .  S
C178        O188   1.262       .  A
C178        O179   1.266       .  A
C178       C2661   1.494       .  S
O179       Al181   1.911       .  S
O180        C182   1.258       .  A
O180       Al181   1.882       .  S
Al181       O189   1.901   1_554  S
Al181       O191   1.904   1_554  S
Al181       O190   1.774   1_554  S
C182        O195   1.263       .  A
C182       C2789   1.486       .  S
O183        C193   1.258       .  A
O183       Al185   1.895       .  S
O184        C197   1.262       .  A
O184       Al194   1.884       .  S
Al185       O198   1.913       .  S
Al185       O195   1.921   1_556  S
Al185       O190   1.788       .  S
O186        C193   1.262       .  A
O186       Al194   1.907       .  S
O187        C196   1.260       .  A
O187       Al194   1.917       .  S
O188       Al194   1.902   1_554  S
O189        C196   1.258       .  A
O190       Al194   1.781       .  S
O191        C192   1.262       .  A
C192       C2990   1.481       .  S
C193       C2693   1.486       .  S
C196       C2606   1.474       .  S
C197        O198   1.262       .  A
C197       C2629   1.477       .  S
O199        C214   1.260       .  A
O199       Al207   1.899       .  S
C200        O210   1.255       .  A
C200        O201   1.265       .  A
C200       C2542   1.471       .  S
O201       Al203   1.919   1_556  S
O202        C204   1.257       .  A
O202       Al203   1.882   1_556  S
Al203       O211   1.888       .  S
Al203       O213   1.917       .  S
Al203       O212   1.773       .  S
C204        O217   1.265   1_556  A
C204       C2469   1.489       .  S
O205        C215   1.261       .  A
O205       Al207   1.893       .  S
O206        C219   1.254       .  A
O206       Al216   1.865       .  S
Al207       O220   1.925       .  S
Al207       O217   1.922       .  S
Al207       O212   1.783       .  S
O208        C215   1.261       .  A
O208       Al216   1.913       .  S
O209        C218   1.264       .  A
O209       Al216   1.922       .  S
O210       Al216   1.870   1_556  S
O211        C218   1.257       .  A
O212       Al216   1.777       .  S
O213        C214   1.265       .  A
C214       C2501   1.490       .  S
C215       C2702   1.486       .  S
C218       C2437   1.482       .  S
C219        O220   1.266       .  A
C219       C2565   1.475       .  S
O221        C236   1.260       .  A
O221       Al229   1.907       .  S
C222        O232   1.268       .  A
C222        O223   1.254       .  A
C222       C2670   1.482       .  S
O223       Al225   1.863       .  S
O224        C226   1.269       .  A
O224       Al225   1.937       .  S
Al225       O233   1.918       .  S
Al225       O235   1.889       .  S
Al225       O234   1.773       .  S
C226        O239   1.258       .  A
C226       C2766   1.491       .  S
O227        C237   1.258       .  A
O227       Al229   1.897       .  S
O228        C241   1.268       .  A
O228       Al238   1.940       .  S
Al229       O242   1.876       .  S
Al229       O239   1.887       .  S
Al229       O234   1.776       .  S
O230        C237   1.260       .  A
O230       Al238   1.904       .  S
O231        C240   1.259       .  A
O231       Al238   1.902       .  S
O232       Al238   1.943       .  S
O233        C240   1.264       .  A
O234       Al238   1.781       .  S
O235        C236   1.257       .  A
C236       C2638   1.462       .  S
C237       C2382   1.472       .  S
C240       C2414   1.489       .  S
C241        O242   1.262       .  A
C241       C2341   1.493       .  S
O243        C258   1.257       .  A
O243       Al251   1.883       .  S
C244        O254   1.258       .  A
C244        O245   1.258       .  A
C244       C2533   1.463       .  S
O245       Al247   1.897       .  S
O246        C248   1.256       .  A
O246       Al247   1.879       .  S
Al247       O255   1.884       .  S
Al247       O257   1.888       .  S
Al247       O256   1.793       .  S
C248        O261   1.258       .  A
C248       C2309   1.479       .  S
O249        C259   1.260       .  A
O249       Al251   1.892       .  S
O250        C263   1.259       .  A
O250       Al260   1.899       .  S
Al251       O264   1.902       .  S
Al251       O261   1.912       .  S
Al251       O256   1.792       .  S
O252        C259   1.261       .  A
O252       Al260   1.917       .  S
O253        C262   1.261       .  A
O253       Al260   1.920       .  S
O254       Al260   1.885       .  S
O255        C262   1.256       .  A
O256       Al260   1.795       .  S
O257        C258   1.257       .  A
C258       C2574   1.464       .  S
C259       C2277   1.486       .  S
C262       C2405   1.476       .  S
C263        O264   1.261       .  A
C263       C2254   1.472       .  S
O265        C280   1.258       .  A
O265       Al273   1.898       .  S
C266        O276   1.257       .  A
C266        O267   1.265       .  A
C266       C2126   1.482       .  S
O267       Al269   1.918       .  S
O268        C270   1.262       .  A
O268       Al269   1.893       .  S
Al269       O277   1.902       .  S
Al269       O279   1.900       .  S
Al269       O278   1.778       .  S
C270        O283   1.267       .  A
C270       C2222   1.493       .  S
O271        C281   1.259       .  A
O271       Al273   1.898       .  S
O272        C285   1.256       .  A
O272       Al282   1.876       .  S
Al273       O286   1.936       .  S
Al273       O283   1.927       .  S
Al273       O278   1.782       .  S
O274        C281   1.257       .  A
O274       Al282   1.899       .  S
O275        C284   1.262   1_655  A
O275       Al282   1.908   1_655  S
O276       Al282   1.886       .  S
O277        C284   1.260       .  A
O278       Al282   1.780       .  S
O279        C280   1.261       .  A
C280       C2181   1.495       .  S
C281       C2158   1.483       .  S
C284       C3406   1.487   1_455  S
C285        O286   1.269       .  A
C285       C2085   1.491       .  S
O287        C302   1.259       .  A
O287       Al295   1.897       .  S
C288        O298   1.258       .  A
C288        O289   1.265       .  A
C288       C2062   1.474       .  S
O289       Al291   1.913       .  S
O290        C292   1.261       .  A
O290       Al291   1.881       .  S
Al291       O299   1.900       .  S
Al291       O301   1.905       .  S
Al291       O300   1.771       .  S
C292        O305   1.264       .  A
C292       C2478   1.496       .  S
O293        C303   1.259       .  A
O293       Al295   1.900       .  S
O294        C307   1.258       .  A
O294       Al304   1.875       .  S
Al295       O308   1.926       .  S
Al295       O305   1.930       .  S
Al295       O300   1.779       .  S
O296        C303   1.262       .  A
O296       Al304   1.911       .  S
O297        C306   1.262       .  A
O297       Al304   1.927       .  S
O298       Al304   1.884       .  S
O299        C306   1.259       .  A
O300       Al304   1.778       .  S
O301        C302   1.261       .  A
C302       C2318   1.479       .  S
C303       C2149   1.491       .  S
C306       C1998   1.477   1_455  S
C307        O308   1.269       .  A
C307       C2021   1.485       .  S
O309        C324   1.258       .  A
O309       Al317   1.882       .  S
C310        O320   1.258       .  A
C310        O311   1.261       .  A
C310       C2117   1.482       .  S
O311       Al313   1.908       .  S
O312        C314   1.257       .  A
O312       Al313   1.895   1_455  S
Al313       O321   1.882       .  S
Al313       O323   1.921   1_655  S
Al313       O322   1.786       .  S
C314        O327   1.259   1_455  A
C314       C1957   1.476       .  S
O315        C325   1.259       .  A
O315       Al317   1.892       .  S
O316        C329   1.258       .  A
O316       Al326   1.895       .  S
Al317       O330   1.902       .  S
Al317       O327   1.914       .  S
Al317       O322   1.785       .  S
O318        C325   1.267       .  A
O318       Al326   1.943       .  S
O319        C328   1.265       .  A
O319       Al326   1.939       .  S
O320       Al326   1.881       .  S
O321        C328   1.257       .  A
O322       Al326   1.794       .  S
O323        C324   1.263   1_455  A
C324       C2094   1.475   1_655  S
C325       C3749   1.479       .  S
C328       C1925   1.496       .  S
C329        O330   1.260       .  A
C329       C3374   1.473       .  S
O331        C346   1.258   1_655  A
O331       Al339   1.880       .  S
C332        O342   1.261       .  A
C332        O333   1.256       .  A
C332       C2053   1.482       .  S
O333       Al335   1.889       .  S
O334        C336   1.261       .  A
O334       Al335   1.907   1_455  S
Al335       O343   1.894       .  S
Al335       O345   1.898   1_655  S
Al335       O344   1.786       .  S
C336        O349   1.257       .  A
C336       C2510   1.479       .  S
O337        C347   1.258       .  A
O337       Al339   1.892       .  S
O338        C351   1.261       .  A
O338       Al348   1.904       .  S
Al339       O352   1.896       .  S
Al339       O349   1.901   1_655  S
Al339       O344   1.779       .  S
O340        C347   1.264       .  A
O340       Al348   1.932       .  S
O341        C350   1.264       .  A
O341       Al348   1.932       .  S
O342       Al348   1.890       .  S
O343        C350   1.258       .  A
O344       Al348   1.793       .  S
O345        C346   1.258       .  A
C346       C2030   1.461       .  S
C347       C1861   1.477       .  S
C350       C1934   1.478       .  S
C351        O352   1.259       .  A
C351       C1893   1.476       .  S
O353        C368   1.260       .  A
O353       Al361   1.891       .  S
C354        O364   1.260       .  A
C354        O355   1.262       .  A
C354       C1797   1.477       .  S
O355       Al357   1.912       .  S
O356        C358   1.262       .  A
O356       Al357   1.896       .  S
Al357       O365   1.895       .  S
Al357       O367   1.920       .  S
Al357       O366   1.781       .  S
C358        O371   1.260       .  A
C358       C3493   1.493       .  S
O359        C369   1.257       .  A
O359       Al361   1.883       .  S
O360        C373   1.257       .  A
O360       Al370   1.886       .  S
Al361       O374   1.914       .  S
Al361       O371   1.916       .  S
Al361       O366   1.792       .  S
O362        C369   1.266       .  A
O362       Al370   1.917       .  S
O363        C372   1.263       .  A
O363       Al370   1.918       .  S
O364       Al370   1.896       .  S
O365        C372   1.259       .  A
O366       Al370   1.786       .  S
O367        C368   1.263       .  A
C368       C3214   1.484       .  S
C369       C1838   1.486       .  S
C372       C1733   1.488       .  S
C373        O374   1.262       .  A
C373       C1765   1.491       .  S
O375        C390   1.262       .  A
O375       Al383   1.902       .  S
C376        O386   1.260       .  A
C376        O377   1.260       .  A
C376       C1669   1.481       .  S
O377       Al379   1.903       .  S
O378        C380   1.259       .  A
O378       Al379   1.881       .  S
Al379       O387   1.898       .  S
Al379       O389   1.903       .  S
Al379       O388   1.775       .  S
C380        O393   1.259       .  A
C380       C1637   1.468       .  S
O381        C391   1.259       .  A
O381       Al383   1.902       .  S
O382        C395   1.257       .  A
O382       Al392   1.869       .  S
Al383       O396   1.910       .  S
Al383       O393   1.902       .  S
Al383       O388   1.786       .  S
O384        C391   1.258       .  A
O384       Al392   1.900       .  S
O385        C394   1.257       .  A
O385       Al392   1.903       .  S
O386       Al392   1.879       .  S
O387        C394   1.260       .  A
O388       Al392   1.781       .  S
O389        C390   1.260       .  A
C390       C1614   1.476       .  S
C391       C1829   1.481       .  S
C394       C2373   1.490       .  S
C395        O396   1.264       .  A
C395       C1701   1.467       .  S
O397        C412   1.257       .  A
O397       Al405   1.875       .  S
C398        O408   1.260       .  A
C398        O399   1.265       .  A
C398       C1806   1.486       .  S
O399       Al401   1.910       .  S
O400        C402   1.256       .  A
O400       Al401   1.900       .  S
Al401       O409   1.881       .  S
Al401       O411   1.921       .  S
Al401       O410   1.783       .  S
C402        O415   1.260       .  A
C402       C3534   1.488       .  S
O403        C413   1.258       .  A
O403       Al405   1.891       .  S
O404        C417   1.262       .  A
O404       Al414   1.903       .  S
Al405       O418   1.911       .  S
Al405       O415   1.908       .  S
Al405       O410   1.779       .  S
O406        C413   1.266       .  A
O406       Al414   1.928       .  S
O407        C416   1.261       .  A
O407       Al414   1.924       .  S
O408       Al414   1.891       .  S
O409        C416   1.257       .  A
O410       Al414   1.791       .  S
O411        C412   1.263       .  A
C412       C1774   1.466       .  S
C413       C1509   1.490       .  S
C416       C1573   1.493       .  S
C417        O418   1.262       .  A
C417       C1541   1.476       .  S
O419        C434   1.259       .  A
O419       Al427   1.887       .  S
C420        O430   1.256       .  A
C420        O421   1.261       .  A
C420       C1678   1.474       .  S
O421       Al423   1.902       .  S
O422        C424   1.260       .  A
O422       Al423   1.899       .  S
Al423       O431   1.881       .  S
Al423       O433   1.908       .  S
Al423       O432   1.782       .  S
C424        O437   1.258       .  A
C424       C1477   1.479       .  S
O425        C435   1.260       .  A
O425       Al427   1.893       .  S
O426        C439   1.260       .  A
O426       Al436   1.901       .  S
Al427       O440   1.903       .  S
Al427       O437   1.905       .  S
Al427       O432   1.776       .  S
O428        C435   1.268       .  A
O428       Al436   1.927       .  S
O429        C438   1.267       .  A
O429       Al436   1.933       .  S
O430       Al436   1.876       .  S
O431        C438   1.256       .  A
O432       Al436   1.783       .  S
O433        C434   1.264       .  A
C434       C1710   1.481       .  S
C435       C2597   1.484       .  S
C438       C1582   1.496       .  S
C439        O440   1.262       .  A
C439       C2350   1.477       .  S
O441        C456   1.260       .  A
O441       Al449   1.900       .  S
C442        O452   1.255       .  A
C442        O443   1.258       .  A
C442       C1349   1.454       .  S
O443       Al445   1.900   1_556  S
O444        C446   1.261       .  A
O444       Al445   1.888   1_556  S
Al445       O453   1.901       .  S
Al445       O455   1.911       .  S
Al445       O454   1.781       .  S
C446        O459   1.262   1_556  A
C446       C1413   1.490       .  S
O447        C457   1.258       .  A
O447       Al449   1.893       .  S
O448        C461   1.261       .  A
O448       Al458   1.877       .  S
Al449       O462   1.922       .  S
Al449       O459   1.917       .  S
Al449       O454   1.785       .  S
O450        C457   1.261       .  A
O450       Al458   1.913       .  S
O451        C460   1.265       .  A
O451       Al458   1.924       .  S
O452       Al458   1.880   1_556  S
O453        C460   1.261       .  A
O454       Al458   1.782       .  S
O455        C456   1.259       .  A
C456       C1445   1.477       .  S
C457       C1390   1.473       .  S
C460       C1870   1.493       .  S
C461        O462   1.263       .  A
C461       C1317   1.480       .  S
O463        C478   1.256       .  A
O463       Al471   1.897       .  S
C464        O474   1.262       .  A
C464        O465   1.255       .  A
C464       C1262   1.490       .  S
O465       Al467   1.903       .  S
O466        C468   1.261       .  A
O466       Al467   1.876       .  S
Al467       O475   1.892   1_554  S
Al467       O477   1.895   1_554  S
Al467       O476   1.780   1_554  S
C468        O481   1.265       .  A
C468       C1646   1.481       .  S
O469        C479   1.255       .  A
O469       Al471   1.889       .  S
O470        C483   1.262       .  A
O470       Al480   1.876       .  S
Al471       O484   1.928       .  S
Al471       O481   1.924   1_556  S
Al471       O476   1.790       .  S
O472        C479   1.258       .  A
O472       Al480   1.904       .  S
O473        C482   1.264       .  A
O473       Al480   1.922       .  S
O474       Al480   1.903   1_554  S
O475        C482   1.262       .  A
O476       Al480   1.779       .  S
O477        C478   1.257       .  A
C478       C1486   1.474       .  S
C479       C1381   1.470   1_556  S
C482       C2926   1.474       .  S
C483        O484   1.265       .  A
C483       C1285   1.496       .  S
O485        C500   1.260       .  A
O485       Al493   1.868       .  S
C486        O496   1.256       .  A
C486        O487   1.264       .  A
C486       C1358   1.462       .  S
O487       Al489   1.918       .  S
O488        C490   1.258       .  A
O488       Al489   1.895       .  S
Al489       O497   1.870       .  S
Al489       O499   1.929       .  S
Al489       O498   1.787       .  S
C490        O503   1.255       .  A
C490       C1230   1.493       .  S
O491        C501   1.261       .  A
O491       Al493   1.894       .  S
O492        C505   1.260       .  A
O492       Al502   1.899       .  S
Al493       O506   1.905       .  S
Al493       O503   1.903       .  S
Al493       O498   1.778       .  S
O494        C501   1.268       .  A
O494       Al502   1.933       .  S
O495        C504   1.264       .  A
O495       Al502   1.930       .  S
O496       Al502   1.874       .  S
O497        C504   1.252       .  A
O498       Al502   1.788       .  S
O499        C500   1.265       .  A
C500       C1326   1.481       .  S
C501       C1989   1.487       .  S
C504       C1189   1.483       .  S
C505        O506   1.261       .  A
C505       C1902   1.470       .  S
O507        C522   1.259       .  A
O507       Al515   1.880       .  S
C508        O518   1.259       .  A
C508        O509   1.267       .  A
C508       C1253   1.490       .  S
O509       Al511   1.915       .  S
O510        C512   1.258       .  A
O510       Al511   1.900       .  S
Al511       O519   1.888       .  S
Al511       O521   1.919       .  S
Al511       O520   1.786       .  S
C512        O525   1.259       .  A
C512       C1605   1.487       .  S
O513        C523   1.262       .  A
O513       Al515   1.911       .  S
O514        C527   1.263       .  A
O514       Al524   1.903       .  S
Al515       O528   1.907       .  S
Al515       O525   1.906       .  S
Al515       O520   1.785       .  S
O516        C523   1.258       .  A
O516       Al524   1.903       .  S
O517        C526   1.256       .  A
O517       Al524   1.907       .  S
O518       Al524   1.885       .  S
O519        C526   1.255       .  A
O520       Al524   1.791       .  S
O521        C522   1.262       .  A
C522       C1294   1.480       .  S
C523       C2725   1.484       .  S
C526       C1198   1.468       .  S
C527        O528   1.263       .  A
C527       C2949   1.478       .  S
O529        C544   1.261       .  A
O529       Al537   1.899       .  S
C530        O540   1.258       .  A
C530        O531   1.262       .  A
C530       C1134   1.476       .  S
O531       Al533   1.919       .  S
O532        C534   1.256       .  A
O532       Al533   1.869       .  S
Al533       O541   1.883       .  S
Al533       O543   1.915       .  S
Al533       O542   1.777       .  S
C534        O547   1.264       .  A
C534       C2853   1.489       .  S
O535        C545   1.258       .  A
O535       Al537   1.897       .  S
O536        C549   1.257       .  A
O536       Al546   1.875       .  S
Al537       O550   1.934       .  S
Al537       O547   1.934       .  S
Al537       O542   1.789       .  S
O538        C545   1.261       .  A
O538       Al546   1.911       .  S
O539        C548   1.264       .  A
O539       Al546   1.927       .  S
O540       Al546   1.887       .  S
O541        C548   1.256       .  A
O542       Al546   1.786       .  S
O543        C544   1.262       .  A
C544       C3086   1.481       .  S
C545       C1157   1.469       .  S
C548       C1518   1.476       .  S
C549        O550   1.268       .  A
C549       C1093   1.481       .  S
O551        C566   1.263       .  A
O551       Al559   1.909       .  S
C552        O562   1.255       .  A
C552        O553   1.264       .  A
C552       C1029   1.466       .  S
O553       Al555   1.911       .  S
O554        C556   1.261       .  A
O554       Al555   1.884       .  S
Al555       O563   1.895       .  S
Al555       O565   1.911       .  S
Al555       O564   1.772       .  S
C556        O569   1.263       .  A
C556       C2213   1.495       .  S
O557        C567   1.262       .  A
O557       Al559   1.906       .  S
O558        C571   1.254       .  A
O558       Al568   1.865       .  S
Al559       O572   1.920       .  S
Al559       O569   1.926       .  S
Al559       O564   1.780       .  S
O560        C567   1.262       .  A
O560       Al568   1.909       .  S
O561        C570   1.262       .  A
O561       Al568   1.916       .  S
O562       Al568   1.877       .  S
O563        C570   1.258       .  A
O564       Al568   1.778       .  S
O565        C566   1.262       .  A
C566       C1966   1.477       .  S
C567       C1166   1.479       .  S
C570       C1006   1.467       .  S
C571        O572   1.266       .  A
C571       C1070   1.477       .  S
O573        C588   1.253       .  A
O573       Al581   1.870   1_556  S
C574        O584   1.256       .  A
C574        O575   1.266       .  A
C574       C1125   1.488       .  S
O575       Al577   1.927       .  S
O576        C578   1.260       .  A
O576       Al577   1.900       .  S
Al577       O585   1.885       .  S
Al577       O587   1.937       .  S
Al577       O586   1.783       .  S
C578        O591   1.260       .  A
C578       C2830   1.489       .  S
O579        C589   1.255       .  A
O579       Al581   1.879       .  S
O580        C593   1.257       .  A
O580       Al590   1.889       .  S
Al581       O594   1.917       .  S
Al581       O591   1.912       .  S
Al581       O586   1.775       .  S
O582        C589   1.265       .  A
O582       Al590   1.929       .  S
O583        C592   1.261       .  A
O583       Al590   1.914       .  S
O584       Al590   1.872       .  S
O585        C592   1.259       .  A
O586       Al590   1.789       .  S
O587        C588   1.267   1_554  A
C588       C1102   1.488       .  S
C589       C1742   1.484       .  S
C592        C974   1.474       .  S
C593        O594   1.263       .  A
C593       C1550   1.467   1_554  S
O595        C610   1.256       .  A
O595       Al603   1.876       .  S
C596        O606   1.260       .  A
C596        O597   1.258       .  A
C596       C1038   1.476       .  S
O597       Al599   1.898       .  S
O598        C600   1.261       .  A
O598       Al599   1.889       .  S
Al599       O607   1.886   1_556  S
Al599       O609   1.901   1_556  S
Al599       O608   1.779       .  S
C600        O613   1.260       .  A
C600       C2190   1.492       .  S
O601        C611   1.259       .  A
O601       Al603   1.889   1_556  S
O602        C615   1.261       .  A
O602       Al612   1.898   1_554  S
Al603       O616   1.907       .  S
Al603       O613   1.915   1_554  S
Al603       O608   1.776   1_554  S
O604        C611   1.261       .  A
O604       Al612   1.904       .  S
O605        C614   1.263       .  A
O605       Al612   1.906       .  S
O606       Al612   1.887       .  S
O607        C614   1.257   1_554  A
O608       Al612   1.784       .  S
O609        C610   1.259       .  A
C610       C1061   1.459       .  S
C611        C942   1.466       .  S
C614        C965   1.481   1_556  S
C615        O616   1.263       .  A
C615        C901   1.470       .  S
O617        C632   1.259       .  A
O617       Al625   1.899       .  S
C618        O628   1.262       .  A
C618        O619   1.265       .  A
C618        C837   1.477   1_655  S
O619       Al621   1.922       .  S
O620        C622   1.258       .  A
O620       Al621   1.869       .  S
Al621       O629   1.889       .  S
Al621       O631   1.901       .  S
Al621       O630   1.781       .  S
C622        O635   1.264       .  A
C622       C3694   1.484       .  S
O623        C633   1.260       .  A
O623       Al625   1.909       .  S
O624        C637   1.263       .  A
O624       Al634   1.878       .  S
Al625       O638   1.926       .  S
Al625       O635   1.925       .  S
Al625       O630   1.792       .  S
O626        C633   1.254       .  A
O626       Al634   1.891       .  S
O627        C636   1.257       .  A
O627       Al634   1.908   1_455  S
O628       Al634   1.897       .  S
O629        C636   1.255   1_655  A
O630       Al634   1.788       .  S
O631        C632   1.257       .  A
C632       C3342   1.484       .  S
C633        C878   1.493       .  S
C636        C933   1.467       .  S
C637        O638   1.266       .  A
C637        C805   1.488       .  S
O639        C654   1.259       .  A
O639       Al647   1.885       .  S
C640        O650   1.255       .  A
C640        O641   1.266       .  A
C640        C782   1.471       .  S
O641       Al643   1.926       .  S
O642        C644   1.259       .  A
O642       Al643   1.903       .  S
Al643       O651   1.899       .  S
Al643       O653   1.922       .  S
Al643       O652   1.786       .  S
C644        O657   1.261       .  A
C644       C1221   1.484       .  S
O645        C655   1.261   1_655  A
O645       Al647   1.894       .  S
O646        C659   1.256       .  A
O646       Al656   1.886       .  S
Al647       O660   1.915       .  S
Al647       O657   1.899       .  S
Al647       O652   1.777       .  S
O648        C655   1.265       .  A
O648       Al656   1.934   1_455  S
O649        C658   1.263       .  A
O649       Al656   1.914       .  S
O650       Al656   1.864       .  S
O651        C658   1.258       .  A
O652       Al656   1.779       .  S
O653        C654   1.266       .  A
C654       C1422   1.487       .  S
C655       C2286   1.489       .  S
C658        C869   1.481       .  S
C659        O660   1.263       .  A
C659        C741   1.488   1_655  S
O661        C676   1.263       .  A
O661       Al669   1.910       .  S
C662        O672   1.265       .  A
C662        O663   1.260       .  A
C662        C846   1.475       .  S
O663       Al665   1.883       .  S
O664        C666   1.260       .  A
O664       Al665   1.915       .  S
Al665       O673   1.901       .  S
Al665       O675   1.891       .  S
Al665       O674   1.790       .  S
C666        O679   1.256       .  A
C666       C3717   1.482   1_455  S
O667        C677   1.260       .  A
O667       Al669   1.910       .  S
O668        C681   1.261       .  A
O668       Al678   1.907       .  S
Al669       O682   1.887       .  S
Al669       O679   1.892       .  S
Al669       O674   1.786       .  S
O670        C677   1.261       .  A
O670       Al678   1.899       .  S
O671        C680   1.260       .  A
O671       Al678   1.911       .  S
O672       Al678   1.929       .  S
O673        C680   1.257       .  A
O674       Al678   1.793       .  S
O675        C676   1.259       .  A
C676        C814   1.473       .  S
C677        C997   1.486       .  S
C680        C709   1.487       .  S
C681        O682   1.256       .  A
C681        C910   1.492       .  S
O683        C698   1.257       .  A
O683       Al691   1.884       .  S
C684        O694   1.262       .  A
C684        O685   1.262       .  A
C684        C750   1.494       .  S
O685       Al687   1.916       .  S
O686        C688   1.256       .  A
O686       Al687   1.891       .  S
Al687       O695   1.890       .  S
Al687       O697   1.917       .  S
Al687       O696   1.785       .  S
C688        O701   1.257       .  A
C688       C1454   1.472   1_455  S
O689        C699   1.256       .  A
O689       Al691   1.887       .  S
O690        C703   1.262       .  A
O690       Al700   1.911       .  S
Al691       O704   1.897       .  S
Al691       O701   1.907       .  S
Al691       O696   1.779       .  S
O692        C699   1.264       .  A
O692       Al700   1.927       .  S
O693        C702   1.261       .  A
O693       Al700   1.924       .  S
O694       Al700   1.888       .  S
O695        C702   1.257       .  A
O696       Al700   1.792       .  S
O697        C698   1.264       .  A
C698        C773   1.486       .  S
C699       C2446   1.485       .  S
C702        C718   1.477       .  S
C703        O704   1.263       .  A
C703       C2245   1.483       .  S
C705        C706   1.400       .  A
C705        C710   1.404       .  A
C705        H715   1.084       .  S
C706        C711   1.488       .  S
C706        C707   1.416       .  A
C707        C708   1.412       .  A
C707        C712   1.518       .  S
C708        C709   1.407       .  A
C708        H713   1.083       .  S
C709        C710   1.422       .  A
C710        C714   1.521       .  S
C711        C716   1.419   1_545  A
C711        C720   1.402       .  A
C712        F728   1.382       .  S
C712        F729   1.382       .  S
C712        F730   1.384       .  S
C714        F725   1.385       .  S
C714        F726   1.383       .  S
C714        F727   1.384       .  S
C716        C717   1.411       .  A
C716        C721   1.519   1_565  S
C717        C718   1.402       .  A
C717        H722   1.083       .  S
C718        C719   1.414       .  A
C719        C720   1.405   1_565  A
C719        C723   1.516       .  S
C720        H724   1.083       .  S
C721        F734   1.384   1_545  S
C721        F735   1.382       .  S
C721        F736   1.382       .  S
C723        F731   1.382       .  S
C723        F732   1.384       .  S
C723        F733   1.384   1_565  S
C737        C738   1.399       .  A
C737        C742   1.407       .  A
C737        H747   1.083       .  S
C738        C743   1.475       .  S
C738        C739   1.413       .  A
C739        C740   1.401       .  A
C739        C744   1.523       .  S
C740        C741   1.408       .  A
C740        H745   1.082   1_455  S
C741        C742   1.426       .  A
C742        C746   1.521       .  S
C743        C748   1.409       .  A
C743        C752   1.395       .  A
C744        F760   1.382   1_455  S
C744        F761   1.381       .  S
C744        F762   1.385   1_455  S
C746        F757   1.385       .  S
C746        F758   1.384       .  S
C746        F759   1.383       .  S
C748        C749   1.405   1_556  A
C748        C753   1.520       .  S
C749        C750   1.413       .  A
C749        H754   1.082       .  S
C750        C751   1.430       .  A
C751        C752   1.403   1_554  A
C751        C755   1.522   1_455  S
C752        H756   1.083   1_455  S
C753        F766   1.385       .  S
C753        F767   1.382       .  S
C753        F768   1.381       .  S
C755        F763   1.385       .  S
C755        F764   1.381   1_655  S
C755        F765   1.381       .  S
C769        C770   1.399       .  A
C769        C774   1.404   1_655  A
C769        H779   1.083       .  S
C770        C775   1.478       .  S
C770        C771   1.411       .  A
C771        C772   1.405       .  A
C771        C776   1.518       .  S
C772        C773   1.409   1_655  A
C772        H777   1.083       .  S
C773        C774   1.425       .  A
C774        C778   1.521       .  S
C775        C780   1.417       .  A
C775        C784   1.402       .  A
C776        F792   1.382       .  S
C776        F793   1.383       .  S
C776        F794   1.384       .  S
C778        F789   1.385       .  S
C778        F790   1.381       .  S
C778        F791   1.384       .  S
C780        C781   1.400       .  A
C780        C785   1.517       .  S
C781        C782   1.401       .  A
C781        H786   1.085       .  S
C782        C783   1.418       .  A
C783        C784   1.404       .  A
C783        C787   1.520   1_655  S
C784        H788   1.083   1_655  S
C785        F798   1.384       .  S
C785        F799   1.383       .  S
C785        F800   1.382       .  S
C787        F795   1.379       .  S
C787        F796   1.383   1_455  S
C787        F797   1.385       .  S
C801        C802   1.400       .  A
C801        C806   1.409   1_554  A
C801        H811   1.083       .  S
C802        C807   1.478       .  S
C802        C803   1.413   1_655  A
C803        C804   1.401   1_554  A
C803        C808   1.523       .  S
C804        C805   1.408   1_455  A
C804        H809   1.083       .  S
C805        C806   1.424       .  A
C806        C810   1.520       .  S
C807        C812   1.413       .  A
C807        C816   1.403   1_655  A
C808        F824   1.382       .  S
C808        F825   1.383       .  S
C808        F826   1.385       .  S
C810        F821   1.383       .  S
C810        F822   1.385   1_556  S
C810        F823   1.383       .  S
C812        C813   1.401       .  A
C812        C817   1.520       .  S
C813        C814   1.402   1_655  A
C813        H818   1.081       .  S
C814        C815   1.417       .  A
C815        C816   1.407       .  A
C815        C819   1.520       .  S
C816        H820   1.083       .  S
C817        F830   1.385       .  S
C817        F831   1.382       .  S
C817        F832   1.382       .  S
C819        F827   1.383       .  S
C819        F828   1.383       .  S
C819        F829   1.385       .  S
C833        C834   1.399       .  A
C833        C838   1.401   1_455  A
C833        H843   1.084   1_455  S
C834        C839   1.481       .  S
C834        C835   1.416       .  A
C835        C836   1.410       .  A
C835        C840   1.518       .  S
C836        C837   1.405       .  A
C836        H841   1.083       .  S
C837        C838   1.417   1_455  A
C838        C842   1.517       .  S
C839        C844   1.417       .  A
C839        C848   1.401       .  A
C840        F856   1.382       .  S
C840        F857   1.382       .  S
C840        F858   1.385       .  S
C842        F853   1.384       .  S
C842        F854   1.382       .  S
C842        F855   1.382       .  S
C844        C845   1.406       .  A
C844        C849   1.519       .  S
C845        C846   1.402       .  A
C845        H850   1.084       .  S
C846        C847   1.417       .  A
C847        C848   1.405       .  A
C847        C851   1.516       .  S
C848        H852   1.083       .  S
C849        F862   1.385       .  S
C849        F863   1.382   1_455  S
C849        F864   1.382       .  S
C851        F859   1.385       .  S
C851        F860   1.382       .  S
C851        F861   1.382       .  S
C865        C866   1.404       .  A
C865        C870   1.411   1_545  A
C865        H875   1.083       .  S
C866        C871   1.483       .  S
C866        C867   1.416       .  A
C867        C868   1.404   1_545  A
C867        C872   1.522       .  S
C868        C869   1.403       .  A
C868        H873   1.083       .  S
C869        C870   1.419       .  A
C870        C874   1.519       .  S
C871        C876   1.413       .  A
C871        C880   1.396       .  A
C872        F888   1.382       .  S
C872        F889   1.381       .  S
C872        F890   1.385       .  S
C874        F885   1.385       .  S
C874        F886   1.384       .  S
C874        F887   1.382       .  S
C876        C877   1.410       .  A
C876        C881   1.518       .  S
C877        C878   1.410       .  A
C877        H882   1.081       .  S
C878        C879   1.428       .  A
C879        C880   1.402       .  A
C879        C883   1.523       .  S
C880        H884   1.084       .  S
C881        F894   1.385       .  S
C881        F895   1.382       .  S
C881        F896   1.381       .  S
C883        F891   1.383       .  S
C883        F892   1.383   1_655  S
C883        F893   1.385       .  S
C897        C898   1.403       .  A
C897        C902   1.401       .  A
C897        H907   1.084       .  S
C898        C903   1.481       .  S
C898        C899   1.416       .  A
C899        C900   1.408       .  A
C899        C904   1.517       .  S
C900        C901   1.403       .  A
C900        H905   1.084       .  S
C901        C902   1.413       .  A
C902        C906   1.517       .  S
C903        C908   1.412       .  A
C903        C912   1.401       .  A
C904        F920   1.382       .  S
C904        F921   1.382       .  S
C904        F922   1.385       .  S
C906        F917   1.385       .  S
C906        F918   1.382       .  S
C906        F919   1.384       .  S
C908        C909   1.406       .  A
C908        C913   1.519       .  S
C909        C910   1.411       .  A
C909        H914   1.082       .  S
C910        C911   1.424       .  A
C911        C912   1.405       .  A
C911        C915   1.521       .  S
C912        H916   1.084       .  S
C913        F926   1.385       .  S
C913        F927   1.381       .  S
C913        F928   1.382       .  S
C915        F923   1.383       .  S
C915        F924   1.383       .  S
C915        F925   1.385       .  S
C929        C930   1.399       .  A
C929        C934   1.403       .  A
C929        H939   1.083       .  S
C930        C935   1.473       .  S
C930        C931   1.414       .  A
C931        C932   1.403       .  A
C931        C936   1.520       .  S
C932        C933   1.401       .  A
C932        H937   1.082       .  S
C933        C934   1.416       .  A
C934        C938   1.519       .  S
C935        C940   1.413       .  A
C935        C944   1.401       .  A
C936        F952   1.382       .  S
C936        F953   1.382       .  S
C936        F954   1.385       .  S
C938        F949   1.382       .  S
C938        F950   1.385       .  S
C938        F951   1.383       .  S
C940        C941   1.401       .  A
C940        C945   1.520       .  S
C941        C942   1.404       .  A
C941        H946   1.084       .  S
C942        C943   1.417       .  A
C943        C944   1.402       .  A
C943        C947   1.519       .  S
C944        H948   1.085       .  S
C945        F958   1.385       .  S
C945        F959   1.383       .  S
C945        F960   1.382       .  S
C947        F955   1.384       .  S
C947        F956   1.382       .  S
C947        F957   1.382       .  S
C961        C962   1.399       .  A
C961        C966   1.402       .  A
C961        H971   1.083       .  S
C962        C967   1.475       .  S
C962        C963   1.411       .  A
C963        C964   1.402       .  A
C963        C968   1.519       .  S
C964        C965   1.408       .  A
C964        H969   1.083       .  S
C965        C966   1.423       .  A
C966        C970   1.521       .  S
C967        C972   1.415   1_554  A
C967        C976   1.399       .  A
C968        F984   1.381       .  S
C968        F985   1.382   1_554  S
C968        F986   1.385       .  S
C970        F981   1.385       .  S
C970        F982   1.381       .  S
C970        F983   1.382   1_554  S
C972        C973   1.402   1_556  A
C972        C977   1.521       .  S
C973        C974   1.403       .  A
C973        H978   1.084   1_554  S
C974        C975   1.419       .  A
C975        C976   1.404       .  A
C975        C979   1.519       .  S
C976        H980   1.083       .  S
C977        F990   1.384       .  S
C977        F991   1.382       .  S
C977        F992   1.383       .  S
C979        F987   1.385       .  S
C979        F988   1.382       .  S
C979        F989   1.383       .  S
C993        C994   1.399       .  A
C993        C998   1.407       .  A
C993       H1003   1.083       .  S
C994        C999   1.484       .  S
C994        C995   1.415       .  A
C995        C996   1.409       .  A
C995       C1000   1.519       .  S
C996        C997   1.406       .  A
C996       H1001   1.083       .  S
C997        C998   1.421       .  A
C998       C1002   1.517       .  S
C999       C1004   1.418       .  A
C999       C1008   1.404       .  A
C1000      F1016   1.382       .  S
C1000      F1017   1.382       .  S
C1000      F1018   1.384       .  S
C1002      F1013   1.381       .  S
C1002      F1014   1.385       .  S
C1002      F1015   1.383       .  S
C1004      C1005   1.406       .  A
C1004      C1009   1.520       .  S
C1005      C1006   1.400       .  A
C1005      H1010   1.083       .  S
C1006      C1007   1.411       .  A
C1007      C1008   1.407       .  A
C1007      C1011   1.516       .  S
C1008      H1012   1.083       .  S
C1009      F1022   1.385       .  S
C1009      F1023   1.382       .  S
C1009      F1024   1.382       .  S
C1011      F1019   1.384       .  S
C1011      F1020   1.383       .  S
C1011      F1021   1.383       .  S
C1025      C1026   1.400       .  A
C1025      C1030   1.404       .  A
C1025      H1035   1.083       .  S
C1026      C1031   1.470       .  S
C1026      C1027   1.414       .  A
C1027      C1028   1.398       .  A
C1027      C1032   1.521       .  S
C1028      C1029   1.401       .  A
C1028      H1033   1.084       .  S
C1029      C1030   1.417       .  A
C1030      C1034   1.518       .  S
C1031      C1036   1.413       .  A
C1031      C1040   1.396       .  A
C1032      F1048   1.382       .  S
C1032      F1049   1.382       .  S
C1032      F1050   1.385       .  S
C1034      F1045   1.385       .  S
C1034      F1046   1.383       .  S
C1034      F1047   1.383       .  S
C1036      C1037   1.400       .  A
C1036      C1041   1.520       .  S
C1037      C1038   1.404       .  A
C1037      H1042   1.083       .  S
C1038      C1039   1.424       .  A
C1039      C1040   1.402       .  A
C1039      C1043   1.520       .  S
C1040      H1044   1.083       .  S
C1041      F1054   1.385       .  S
C1041      F1055   1.382       .  S
C1041      F1056   1.383       .  S
C1043      F1051   1.385       .  S
C1043      F1052   1.384       .  S
C1043      F1053   1.383       .  S
C1057      C1058   1.400       .  A
C1057      C1062   1.398       .  A
C1057      H1067   1.084       .  S
C1058      C1063   1.466       .  S
C1058      C1059   1.414       .  A
C1059      C1060   1.400       .  A
C1059      C1064   1.521       .  S
C1060      C1061   1.400       .  A
C1060      H1065   1.082       .  S
C1061      C1062   1.412       .  A
C1062      C1066   1.516       .  S
C1063      C1068   1.410       .  A
C1063      C1072   1.396       .  A
C1064      F1080   1.382       .  S
C1064      F1081   1.382       .  S
C1064      F1082   1.385       .  S
C1066      F1077   1.385       .  S
C1066      F1078   1.381       .  S
C1066      F1079   1.382       .  S
C1068      C1069   1.400       .  A
C1068      C1073   1.520       .  S
C1069      C1070   1.408       .  A
C1069      H1074   1.082       .  S
C1070      C1071   1.425       .  A
C1071      C1072   1.397       .  A
C1071      C1075   1.523       .  S
C1072      H1076   1.084       .  S
C1073      F1086   1.385       .  S
C1073      F1087   1.382       .  S
C1073      F1088   1.382       .  S
C1075      F1083   1.382       .  S
C1075      F1084   1.383       .  S
C1075      F1085   1.385       .  S
C1089      C1090   1.401       .  A
C1089      C1094   1.406       .  A
C1089      H1099   1.083       .  S
C1090      C1095   1.483       .  S
C1090      C1091   1.417       .  A
C1091      C1092   1.406       .  A
C1091      C1096   1.520       .  S
C1092      C1093   1.403       .  A
C1092      H1097   1.083       .  S
C1093      C1094   1.421       .  A
C1094      C1098   1.520       .  S
C1095      C1100   1.413       .  A
C1095      C1104   1.398       .  A
C1096      F1112   1.382       .  S
C1096      F1113   1.382       .  S
C1096      F1114   1.384       .  S
C1098      F1109   1.385       .  S
C1098      F1110   1.383       .  S
C1098      F1111   1.384       .  S
C1100      C1101   1.408       .  A
C1100      C1105   1.518       .  S
C1101      C1102   1.408       .  A
C1101      H1106   1.083       .  S
C1102      C1103   1.427       .  A
C1103      C1104   1.403       .  A
C1103      C1107   1.525       .  S
C1104      H1108   1.083       .  S
C1105      F1118   1.385       .  S
C1105      F1119   1.382       .  S
C1105      F1120   1.382       .  S
C1107      F1115   1.377       .  S
C1107      F1116   1.378       .  S
C1107      F1117   1.385       .  S
C1121      C1122   1.397       .  A
C1121      C1126   1.402       .  A
C1121      H1131   1.083       .  S
C1122      C1127   1.476       .  S
C1122      C1123   1.413       .  A
C1123      C1124   1.406       .  A
C1123      C1128   1.520       .  S
C1124      C1125   1.409       .  A
C1124      H1129   1.083       .  S
C1125      C1126   1.426       .  A
C1126      C1130   1.521       .  S
C1127      C1132   1.414       .  A
C1127      C1136   1.399       .  A
C1128      F1144   1.382       .  S
C1128      F1145   1.381       .  S
C1128      F1146   1.384       .  S
C1130      F1141   1.383       .  S
C1130      F1142   1.385       .  S
C1130      F1143   1.384       .  S
C1132      C1133   1.407       .  A
C1132      C1137   1.519       .  S
C1133      C1134   1.405       .  A
C1133      H1138   1.083       .  S
C1134      C1135   1.419       .  A
C1135      C1136   1.400       .  A
C1135      C1139   1.518       .  S
C1136      H1140   1.084       .  S
C1137      F1150   1.385       .  S
C1137      F1151   1.382       .  S
C1137      F1152   1.381       .  S
C1139      F1147   1.382       .  S
C1139      F1148   1.382       .  S
C1139      F1149   1.385       .  S
C1153      C1154   1.404       .  A
C1153      C1158   1.407       .  A
C1153      H1163   1.083       .  S
C1154      C1159   1.486       .  S
C1154      C1155   1.418       .  A
C1155      C1156   1.406       .  A
C1155      C1160   1.519       .  S
C1156      C1157   1.400       .  A
C1156      H1161   1.084       .  S
C1157      C1158   1.411       .  A
C1158      C1162   1.516       .  S
C1159      C1164   1.417       .  A
C1159      C1168   1.404       .  A
C1160      F1176   1.382       .  S
C1160      F1177   1.383       .  S
C1160      F1178   1.385       .  S
C1162      F1173   1.384       .  S
C1162      F1174   1.383       .  S
C1162      F1175   1.383       .  S
C1164      C1165   1.403       .  A
C1164      C1169   1.521       .  S
C1165      C1166   1.403       .  A
C1165      H1170   1.083       .  S
C1166      C1167   1.417       .  A
C1167      C1168   1.411       .  A
C1167      C1171   1.517       .  S
C1168      H1172   1.083       .  S
C1169      F1182   1.385       .  S
C1169      F1183   1.382       .  S
C1169      F1184   1.383       .  S
C1171      F1179   1.385       .  S
C1171      F1180   1.382       .  S
C1171      F1181   1.384       .  S
C1185      C1186   1.397       .  A
C1185      C1190   1.401       .  A
C1185      H1195   1.084       .  S
C1186      C1191   1.481       .  S
C1186      C1187   1.414       .  A
C1187      C1188   1.410       .  A
C1187      C1192   1.518       .  S
C1188      C1189   1.407       .  A
C1188      H1193   1.083       .  S
C1189      C1190   1.425       .  A
C1190      C1194   1.523       .  S
C1191      C1196   1.417       .  A
C1191      C1200   1.403       .  A
C1192      F1208   1.382       .  S
C1192      F1209   1.382       .  S
C1192      F1210   1.385       .  S
C1194      F1205   1.385       .  S
C1194      F1206   1.378       .  S
C1194      F1207   1.379       .  S
C1196      C1197   1.405       .  A
C1196      C1201   1.519       .  S
C1197      C1198   1.399       .  A
C1197      H1202   1.083       .  S
C1198      C1199   1.413       .  A
C1199      C1200   1.406       .  A
C1199      C1203   1.518       .  S
C1200      H1204   1.083       .  S
C1201      F1214   1.384       .  S
C1201      F1215   1.382       .  S
C1201      F1216   1.382       .  S
C1203      F1211   1.383       .  S
C1203      F1212   1.383       .  S
C1203      F1213   1.384       .  S
C1217      C1218   1.401       .  A
C1217      C1222   1.409       .  A
C1217      H1227   1.083       .  S
C1218      C1223   1.480       .  S
C1218      C1219   1.412       .  A
C1219      C1220   1.401       .  A
C1219      C1224   1.521       .  S
C1220      C1221   1.407       .  A
C1220      H1225   1.083       .  S
C1221      C1222   1.422       .  A
C1222      C1226   1.519       .  S
C1223      C1228   1.413       .  A
C1223      C1232   1.397       .  A
C1224      F1240   1.382       .  S
C1224      F1241   1.383       .  S
C1224      F1242   1.385       .  S
C1226      F1237   1.385       .  S
C1226      F1238   1.383       .  S
C1226      F1239   1.383       .  S
C1228      C1229   1.405       .  A
C1228      C1233   1.521       .  S
C1229      C1230   1.409       .  A
C1229      H1234   1.082       .  S
C1230      C1231   1.429       .  A
C1231      C1232   1.407       .  A
C1231      C1235   1.523       .  S
C1232      H1236   1.083       .  S
C1233      F1246   1.384       .  S
C1233      F1247   1.383       .  S
C1233      F1248   1.382       .  S
C1235      F1243   1.385       .  S
C1235      F1244   1.384       .  S
C1235      F1245   1.383       .  S
C1249      C1250   1.399       .  A
C1249      C1254   1.408       .  A
C1249      H1259   1.083       .  S
C1250      C1255   1.475       .  S
C1250      C1251   1.412       .  A
C1251      C1252   1.399       .  A
C1251      C1256   1.523       .  S
C1252      C1253   1.408       .  A
C1252      H1257   1.080       .  S
C1253      C1254   1.427       .  A
C1254      C1258   1.521       .  S
C1255      C1260   1.410       .  A
C1255      C1264   1.394       .  A
C1256      F1272   1.383       .  S
C1256      F1273   1.382       .  S
C1256      F1274   1.384       .  S
C1258      F1269   1.385       .  S
C1258      F1270   1.383       .  S
C1258      F1271   1.383       .  S
C1260      C1261   1.404       .  A
C1260      C1265   1.518       .  S
C1261      C1262   1.409       .  A
C1261      H1266   1.081       .  S
C1262      C1263   1.431       .  A
C1263      C1264   1.402       .  A
C1263      C1267   1.524       .  S
C1264      H1268   1.083       .  S
C1265      F1278   1.385       .  S
C1265      F1279   1.382       .  S
C1265      F1280   1.382       .  S
C1267      F1275   1.385       .  S
C1267      F1276   1.383       .  S
C1267      F1277   1.382       .  S
C1281      C1282   1.398       .  A
C1281      C1286   1.409       .  A
C1281      H1291   1.083       .  S
C1282      C1287   1.479       .  S
C1282      C1283   1.411       .  A
C1283      C1284   1.402       .  A
C1283      C1288   1.521       .  S
C1284      C1285   1.410       .  A
C1284      H1289   1.082       .  S
C1285      C1286   1.427       .  A
C1286      C1290   1.517       .  S
C1287      C1292   1.414       .  A
C1287      C1296   1.400       .  A
C1288      F1304   1.382       .  S
C1288      F1305   1.383       .  S
C1288      F1306   1.384       .  S
C1290      F1301   1.380       .  S
C1290      F1302   1.385       .  S
C1290      F1303   1.383       .  S
C1292      C1293   1.402       .  A
C1292      C1297   1.520       .  S
C1293      C1294   1.404       .  A
C1293      H1298   1.083       .  S
C1294      C1295   1.421       .  A
C1295      C1296   1.407       .  A
C1295      C1299   1.516       .  S
C1296      H1300   1.083       .  S
C1297      F1310   1.385       .  S
C1297      F1311   1.382       .  S
C1297      F1312   1.382       .  S
C1299      F1307   1.382       .  S
C1299      F1308   1.380       .  S
C1299      F1309   1.385       .  S
C1313      C1314   1.398       .  A
C1313      C1318   1.405       .  A
C1313      H1323   1.083       .  S
C1314      C1319   1.472       .  S
C1314      C1315   1.411       .  A
C1315      C1316   1.400       .  A
C1315      C1320   1.520       .  S
C1316      C1317   1.407       .  A
C1316      H1321   1.083       .  S
C1317      C1318   1.422       .  A
C1318      C1322   1.517       .  S
C1319      C1324   1.413       .  A
C1319      C1328   1.398       .  A
C1320      F1336   1.383       .  S
C1320      F1337   1.383       .  S
C1320      F1338   1.385       .  S
C1322      F1333   1.380       .  S
C1322      F1334   1.385       .  S
C1322      F1335   1.383       .  S
C1324      C1325   1.397       .  A
C1324      C1329   1.522       .  S
C1325      C1326   1.405       .  A
C1325      H1330   1.083       .  S
C1326      C1327   1.422       .  A
C1327      C1328   1.406       .  A
C1327      C1331   1.514       .  S
C1328      H1332   1.083       .  S
C1329      F1342   1.385       .  S
C1329      F1343   1.382       .  S
C1329      F1344   1.382       .  S
C1331      F1339   1.383       .  S
C1331      F1340   1.382       .  S
C1331      F1341   1.385       .  S
C1345      C1346   1.402       .  A
C1345      C1350   1.402       .  A
C1345      H1355   1.083       .  S
C1346      C1351   1.470       .  S
C1346      C1347   1.415       .  A
C1347      C1348   1.399       .  A
C1347      C1352   1.520       .  S
C1348      C1349   1.398       .  A
C1348      H1353   1.084       .  S
C1349      C1350   1.409       .  A
C1350      C1354   1.514       .  S
C1351      C1356   1.415       .  A
C1351      C1360   1.398       .  A
C1352      F1368   1.382       .  S
C1352      F1369   1.383       .  S
C1352      F1370   1.385       .  S
C1354      F1365   1.382       .  S
C1354      F1366   1.384       .  S
C1354      F1367   1.383       .  S
C1356      C1357   1.401       .  A
C1356      C1361   1.520       .  S
C1357      C1358   1.401       .  A
C1357      H1362   1.083       .  S
C1358      C1359   1.416       .  A
C1359      C1360   1.400       .  A
C1359      C1363   1.515       .  S
C1360      H1364   1.085       .  S
C1361      F1374   1.385       .  S
C1361      F1375   1.382       .  S
C1361      F1376   1.383       .  S
C1363      F1371   1.384       .  S
C1363      F1372   1.381       .  S
C1363      F1373   1.383       .  S
C1377      C1378   1.402       .  A
C1377      C1382   1.405       .  A
C1377      H1387   1.083       .  S
C1378      C1383   1.480       .  S
C1378      C1379   1.416   1_554  A
C1379      C1380   1.406       .  A
C1379      C1384   1.520       .  S
C1380      C1381   1.402   1_556  A
C1380      H1385   1.084       .  S
C1381      C1382   1.414       .  A
C1382      C1386   1.516       .  S
C1383      C1388   1.415       .  A
C1383      C1392   1.400   1_554  A
C1384      F1400   1.382       .  S
C1384      F1401   1.382       .  S
C1384      F1402   1.385       .  S
C1386      F1397   1.385       .  S
C1386      F1398   1.381       .  S
C1386      F1399   1.384       .  S
C1388      C1389   1.408       .  A
C1388      C1393   1.518       .  S
C1389      C1390   1.404       .  A
C1389      H1394   1.083       .  S
C1390      C1391   1.416       .  A
C1391      C1392   1.402   1_554  A
C1391      C1395   1.517   1_554  S
C1392      H1396   1.084       .  S
C1393      F1406   1.385       .  S
C1393      F1407   1.382       .  S
C1393      F1408   1.382       .  S
C1395      F1403   1.382       .  S
C1395      F1404   1.383       .  S
C1395      F1405   1.385       .  S
C1409      C1410   1.400       .  A
C1409      C1414   1.409       .  A
C1409      H1419   1.083       .  S
C1410      C1415   1.477       .  S
C1410      C1411   1.415       .  A
C1411      C1412   1.400       .  A
C1411      C1416   1.524       .  S
C1412      C1413   1.407       .  A
C1412      H1417   1.082       .  S
C1413      C1414   1.425       .  A
C1414      C1418   1.519       .  S
C1415      C1420   1.409       .  A
C1415      C1424   1.399       .  A
C1416      F1432   1.382       .  S
C1416      F1433   1.381       .  S
C1416      F1434   1.384       .  S
C1418      F1429   1.385       .  S
C1418      F1430   1.382   1_556  S
C1418      F1431   1.384       .  S
C1420      C1421   1.407       .  A
C1420      C1425   1.519       .  S
C1421      C1422   1.412       .  A
C1421      H1426   1.082       .  S
C1422      C1423   1.423       .  A
C1423      C1424   1.403       .  A
C1423      C1427   1.520       .  S
C1424      H1428   1.084       .  S
C1425      F1438   1.384       .  S
C1425      F1439   1.383       .  S
C1425      F1440   1.382       .  S
C1427      F1435   1.385       .  S
C1427      F1436   1.384       .  S
C1427      F1437   1.383       .  S
C1441      C1442   1.401       .  A
C1441      C1446   1.407       .  A
C1441      H1451   1.083       .  S
C1442      C1447   1.484       .  S
C1442      C1443   1.416       .  A
C1443      C1444   1.407       .  A
C1443      C1448   1.518       .  S
C1444      C1445   1.401       .  A
C1444      H1449   1.083       .  S
C1445      C1446   1.420       .  A
C1446      C1450   1.520       .  S
C1447      C1452   1.417       .  A
C1447      C1456   1.403       .  A
C1448      F1464   1.382       .  S
C1448      F1465   1.382       .  S
C1448      F1466   1.384       .  S
C1450      F1461   1.382   1_554  S
C1450      F1462   1.385   1_554  S
C1450      F1463   1.381       .  S
C1452      C1453   1.407       .  A
C1452      C1457   1.519       .  S
C1453      C1454   1.402       .  A
C1453      H1458   1.084   1_655  S
C1454      C1455   1.414       .  A
C1455      C1456   1.406       .  A
C1455      C1459   1.517       .  S
C1456      H1460   1.083       .  S
C1457      F1470   1.385       .  S
C1457      F1471   1.382       .  S
C1457      F1472   1.382       .  S
C1459      F1467   1.382       .  S
C1459      F1468   1.384       .  S
C1459      F1469   1.385       .  S
C1473      C1474   1.396       .  A
C1473      C1478   1.401       .  A
C1473      H1483   1.083       .  S
C1474      C1479   1.478       .  S
C1474      C1475   1.416       .  A
C1475      C1476   1.406       .  A
C1475      C1480   1.519       .  S
C1476      C1477   1.404       .  A
C1476      H1481   1.083       .  S
C1477      C1478   1.423       .  A
C1478      C1482   1.518       .  S
C1479      C1484   1.415       .  A
C1479      C1488   1.399       .  A
C1480      F1496   1.382       .  S
C1480      F1497   1.383       .  S
C1480      F1498   1.384       .  S
C1482      F1493   1.385       .  S
C1482      F1494   1.383       .  S
C1482      F1495   1.382       .  S
C1484      C1485   1.403       .  A
C1484      C1489   1.520       .  S
C1485      C1486   1.403       .  A
C1485      H1490   1.084       .  S
C1486      C1487   1.419       .  A
C1487      C1488   1.405       .  A
C1487      C1491   1.518       .  S
C1488      H1492   1.083       .  S
C1489      F1502   1.385       .  S
C1489      F1503   1.382       .  S
C1489      F1504   1.383       .  S
C1491      F1499   1.385       .  S
C1491      F1500   1.381       .  S
C1491      F1501   1.381       .  S
C1505      C1506   1.399       .  A
C1505      C1510   1.407       .  A
C1505      H1515   1.083       .  S
C1506      C1511   1.484       .  S
C1506      C1507   1.413       .  A
C1507      C1508   1.407       .  A
C1507      C1512   1.519       .  S
C1508      C1509   1.408       .  A
C1508      H1513   1.082       .  S
C1509      C1510   1.425       .  A
C1510      C1514   1.521       .  S
C1511      C1516   1.417       .  A
C1511      C1520   1.401       .  A
C1512      F1528   1.382       .  S
C1512      F1529   1.382       .  S
C1512      F1530   1.385       .  S
C1514      F1525   1.383       .  S
C1514      F1526   1.385       .  S
C1514      F1527   1.383       .  S
C1516      C1517   1.407       .  A
C1516      C1521   1.519       .  S
C1517      C1518   1.402       .  A
C1517      H1522   1.084       .  S
C1518      C1519   1.418       .  A
C1519      C1520   1.406       .  A
C1519      C1523   1.519       .  S
C1520      H1524   1.083       .  S
C1521      F1534   1.385       .  S
C1521      F1535   1.382       .  S
C1521      F1536   1.382       .  S
C1523      F1531   1.385       .  S
C1523      F1532   1.382       .  S
C1523      F1533   1.383       .  S
C1537      C1538   1.402       .  A
C1537      C1542   1.401       .  A
C1537      H1547   1.083       .  S
C1538      C1543   1.482       .  S
C1538      C1539   1.418       .  A
C1539      C1540   1.406       .  A
C1539      C1544   1.517       .  S
C1540      C1541   1.403       .  A
C1540      H1545   1.085       .  S
C1541      C1542   1.417       .  A
C1542      C1546   1.519       .  S
C1543      C1548   1.417       .  A
C1543      C1552   1.402       .  A
C1544      F1560   1.383       .  S
C1544      F1561   1.383       .  S
C1544      F1562   1.383       .  S
C1546      F1557   1.385       .  S
C1546      F1558   1.381       .  S
C1546      F1559   1.383       .  S
C1548      C1549   1.406       .  A
C1548      C1553   1.518       .  S
C1549      C1550   1.403       .  A
C1549      H1554   1.084   1_556  S
C1550      C1551   1.414       .  A
C1551      C1552   1.399       .  A
C1551      C1555   1.515       .  S
C1552      H1556   1.085       .  S
C1553      F1566   1.385   1_556  S
C1553      F1567   1.381       .  S
C1553      F1568   1.383       .  S
C1555      F1563   1.381       .  S
C1555      F1564   1.381       .  S
C1555      F1565   1.383       .  S
C1569      C1570   1.401       .  A
C1569      C1574   1.412       .  A
C1569      H1579   1.083       .  S
C1570      C1575   1.483       .  S
C1570      C1571   1.414       .  A
C1571      C1572   1.403       .  A
C1571      C1576   1.522       .  S
C1572      C1573   1.408       .  A
C1572      H1577   1.083       .  S
C1573      C1574   1.425       .  A
C1574      C1578   1.519       .  S
C1575      C1580   1.411   1_545  A
C1575      C1584   1.397   1_545  A
C1576      F1592   1.382       .  S
C1576      F1593   1.382       .  S
C1576      F1594   1.385       .  S
C1578      F1589   1.385       .  S
C1578      F1590   1.384       .  S
C1578      F1591   1.383       .  S
C1580      C1581   1.409       .  A
C1580      C1585   1.517   1_565  S
C1581      C1582   1.410       .  A
C1581      H1586   1.082       .  S
C1582      C1583   1.428       .  A
C1583      C1584   1.405       .  A
C1583      C1587   1.519       .  S
C1584      H1588   1.084   1_565  S
C1585      F1598   1.384   1_545  S
C1585      F1599   1.383       .  S
C1585      F1600   1.382       .  S
C1587      F1595   1.385       .  S
C1587      F1596   1.384       .  S
C1587      F1597   1.382       .  S
C1601      C1602   1.402       .  A
C1601      C1606   1.407       .  A
C1601      H1611   1.083       .  S
C1602      C1607   1.484       .  S
C1602      C1603   1.413       .  A
C1603      C1604   1.407       .  A
C1603      C1608   1.520       .  S
C1604      C1605   1.408       .  A
C1604      H1609   1.083       .  S
C1605      C1606   1.420       .  A
C1606      C1610   1.517       .  S
C1607      C1612   1.417       .  A
C1607      C1616   1.402       .  A
C1608      F1624   1.382       .  S
C1608      F1625   1.382       .  S
C1608      F1626   1.384       .  S
C1610      F1621   1.381       .  S
C1610      F1622   1.385       .  S
C1610      F1623   1.384       .  S
C1612      C1613   1.406       .  A
C1612      C1617   1.519       .  S
C1613      C1614   1.402       .  A
C1613      H1618   1.083       .  S
C1614      C1615   1.417       .  A
C1615      C1616   1.407       .  A
C1615      C1619   1.517       .  S
C1616      H1620   1.083       .  S
C1617      F1630   1.385       .  S
C1617      F1631   1.382       .  S
C1617      F1632   1.382       .  S
C1619      F1627   1.382       .  S
C1619      F1628   1.384       .  S
C1619      F1629   1.385       .  S
C1633      C1634   1.402       .  A
C1633      C1638   1.400       .  A
C1633      H1643   1.085       .  S
C1634      C1639   1.473       .  S
C1634      C1635   1.412       .  A
C1635      C1636   1.403       .  A
C1635      C1640   1.518       .  S
C1636      C1637   1.404       .  A
C1636      H1641   1.083       .  S
C1637      C1638   1.414       .  A
C1638      C1642   1.518       .  S
C1639      C1644   1.413       .  A
C1639      C1648   1.401       .  A
C1640      F1656   1.383       .  S
C1640      F1657   1.383       .  S
C1640      F1658   1.384       .  S
C1642      F1653   1.383       .  S
C1642      F1654   1.384       .  S
C1642      F1655   1.384       .  S
C1644      C1645   1.397       .  A
C1644      C1649   1.524       .  S
C1645      C1646   1.406       .  A
C1645      H1650   1.082       .  S
C1646      C1647   1.420       .  A
C1647      C1648   1.408       .  A
C1647      C1651   1.518       .  S
C1648      H1652   1.083       .  S
C1649      F1662   1.385       .  S
C1649      F1663   1.382       .  S
C1649      F1664   1.382       .  S
C1651      F1659   1.381       .  S
C1651      F1660   1.384       .  S
C1651      F1661   1.385       .  S
C1665      C1666   1.396       .  A
C1665      C1670   1.399       .  A
C1665      H1675   1.084       .  S
C1666      C1671   1.467       .  S
C1666      C1667   1.407       .  A
C1667      C1668   1.402       .  A
C1667      C1672   1.519       .  S
C1668      C1669   1.411       .  A
C1668      H1673   1.082       .  S
C1669      C1670   1.426       .  A
C1670      C1674   1.524       .  S
C1671      C1676   1.412       .  A
C1671      C1680   1.398       .  A
C1672      F1688   1.383       .  S
C1672      F1689   1.381       .  S
C1672      F1690   1.385       .  S
C1674      F1685   1.385       .  S
C1674      F1686   1.384       .  S
C1674      F1687   1.383       .  S
C1676      C1677   1.400   1_554  A
C1676      C1681   1.523       .  S
C1677      C1678   1.407       .  A
C1677      H1682   1.083       .  S
C1678      C1679   1.420       .  A
C1679      C1680   1.402   1_556  A
C1679      C1683   1.519       .  S
C1680      H1684   1.084       .  S
C1681      F1694   1.385   1_554  S
C1681      F1695   1.382       .  S
C1681      F1696   1.381       .  S
C1683      F1691   1.383       .  S
C1683      F1692   1.384       .  S
C1683      F1693   1.385   1_556  S
C1697      C1698   1.399       .  A
C1697      C1702   1.399       .  A
C1697      H1707   1.084       .  S
C1698      C1703   1.464       .  S
C1698      C1699   1.411       .  A
C1699      C1700   1.398       .  A
C1699      C1704   1.521       .  S
C1700      C1701   1.404       .  A
C1700      H1705   1.083       .  S
C1701      C1702   1.419       .  A
C1702      C1706   1.519       .  S
C1703      C1708   1.407       .  A
C1703      C1712   1.396       .  A
C1704      F1720   1.382       .  S
C1704      F1721   1.381       .  S
C1704      F1722   1.385       .  S
C1706      F1717   1.385       .  S
C1706      F1718   1.383       .  S
C1706      F1719   1.380       .  S
C1708      C1709   1.400       .  A
C1708      C1713   1.520       .  S
C1709      C1710   1.410       .  A
C1709      H1714   1.080       .  S
C1710      C1711   1.422       .  A
C1711      C1712   1.398       .  A
C1711      C1715   1.518       .  S
C1712      H1716   1.084       .  S
C1713      F1726   1.384       .  S
C1713      F1727   1.382       .  S
C1713      F1728   1.381       .  S
C1715      F1723   1.385       .  S
C1715      F1724   1.376       .  S
C1715      F1725   1.380       .  S
C1729      C1730   1.400       .  A
C1729      C1734   1.409       .  A
C1729      H1739   1.083       .  S
C1730      C1735   1.478       .  S
C1730      C1731   1.413       .  A
C1731      C1732   1.403       .  A
C1731      C1736   1.522       .  S
C1732      C1733   1.405       .  A
C1732      H1737   1.078       .  S
C1733      C1734   1.422       .  A
C1734      C1738   1.518       .  S
C1735      C1740   1.411       .  A
C1735      C1744   1.398       .  A
C1736      F1752   1.383       .  S
C1736      F1753   1.381       .  S
C1736      F1754   1.384       .  S
C1738      F1749   1.385       .  S
C1738      F1750   1.378       .  S
C1738      F1751   1.383       .  S
C1740      C1741   1.406       .  A
C1740      C1745   1.519       .  S
C1741      C1742   1.406       .  A
C1741      H1746   1.081       .  S
C1742      C1743   1.425       .  A
C1743      C1744   1.405       .  A
C1743      C1747   1.522       .  S
C1744      H1748   1.083       .  S
C1745      F1758   1.384       .  S
C1745      F1759   1.383       .  S
C1745      F1760   1.382       .  S
C1747      F1755   1.384       .  S
C1747      F1756   1.383       .  S
C1747      F1757   1.384       .  S
C1761      C1762   1.396   1_554  A
C1761      C1766   1.401       .  A
C1761      H1771   1.084       .  S
C1762      C1767   1.477       .  S
C1762      C1763   1.411   1_556  A
C1763      C1764   1.407       .  A
C1763      C1768   1.518   1_554  S
C1764      C1765   1.411       .  A
C1764      H1769   1.083       .  S
C1765      C1766   1.424       .  A
C1766      C1770   1.516       .  S
C1767      C1772   1.417       .  A
C1767      C1776   1.401       .  A
C1768      F1784   1.382       .  S
C1768      F1785   1.382       .  S
C1768      F1786   1.384   1_556  S
C1770      F1781   1.385       .  S
C1770      F1782   1.384       .  S
C1770      F1783   1.383       .  S
C1772      C1773   1.405       .  A
C1772      C1777   1.520       .  S
C1773      C1774   1.400       .  A
C1773      H1778   1.084       .  S
C1774      C1775   1.412       .  A
C1775      C1776   1.402       .  A
C1775      C1779   1.515       .  S
C1776      H1780   1.083       .  S
C1777      F1790   1.385       .  S
C1777      F1791   1.382       .  S
C1777      F1792   1.382       .  S
C1779      F1787   1.383       .  S
C1779      F1788   1.382       .  S
C1779      F1789   1.385       .  S
C1793      C1794   1.401       .  A
C1793      C1798   1.403       .  A
C1793      H1803   1.084       .  S
C1794      C1799   1.483       .  S
C1794      C1795   1.416       .  A
C1795      C1796   1.410       .  A
C1795      C1800   1.519       .  S
C1796      C1797   1.405       .  A
C1796      H1801   1.083       .  S
C1797      C1798   1.414       .  A
C1798      C1802   1.516       .  S
C1799      C1804   1.415       .  A
C1799      C1808   1.401       .  A
C1800      F1816   1.382       .  S
C1800      F1817   1.382       .  S
C1800      F1818   1.384       .  S
C1802      F1813   1.384       .  S
C1802      F1814   1.382       .  S
C1802      F1815   1.384       .  S
C1804      C1805   1.404       .  A
C1804      C1809   1.520       .  S
C1805      C1806   1.407       .  A
C1805      H1810   1.083       .  S
C1806      C1807   1.422       .  A
C1807      C1808   1.406       .  A
C1807      C1811   1.520       .  S
C1808      H1812   1.083       .  S
C1809      F1822   1.385       .  S
C1809      F1823   1.381       .  S
C1809      F1824   1.382       .  S
C1811      F1819   1.382       .  S
C1811      F1820   1.383       .  S
C1811      F1821   1.385       .  S
C1825      C1826   1.396       .  A
C1825      C1830   1.399   1_545  A
C1825      H1835   1.084       .  S
C1826      C1831   1.477       .  S
C1826      C1827   1.412   1_545  A
C1827      C1828   1.409       .  A
C1827      C1832   1.517       .  S
C1828      C1829   1.408       .  A
C1828      H1833   1.083       .  S
C1829      C1830   1.422       .  A
C1830      C1834   1.519       .  S
C1831      C1836   1.414       .  A
C1831      C1840   1.400       .  A
C1832      F1848   1.382   1_565  S
C1832      F1849   1.382   1_565  S
C1832      F1850   1.385       .  S
C1834      F1845   1.383       .  S
C1834      F1846   1.385       .  S
C1834      F1847   1.383       .  S
C1836      C1837   1.401       .  A
C1836      C1841   1.523       .  S
C1837      C1838   1.406       .  A
C1837      H1842   1.083       .  S
C1838      C1839   1.424       .  A
C1839      C1840   1.408       .  A
C1839      C1843   1.521       .  S
C1840      H1844   1.083       .  S
C1841      F1854   1.384       .  S
C1841      F1855   1.382       .  S
C1841      F1856   1.382       .  S
C1843      F1851   1.385       .  S
C1843      F1852   1.384       .  S
C1843      F1853   1.383       .  S
C1857      C1858   1.401       .  A
C1857      C1862   1.404       .  A
C1857      H1867   1.083       .  S
C1858      C1863   1.487       .  S
C1858      C1859   1.417       .  A
C1859      C1860   1.411       .  A
C1859      C1864   1.518       .  S
C1860      C1861   1.404       .  A
C1860      H1865   1.082       .  S
C1861      C1862   1.415       .  A
C1862      C1866   1.517       .  S
C1863      C1868   1.414       .  A
C1863      C1872   1.403       .  A
C1864      F1880   1.382       .  S
C1864      F1881   1.381       .  S
C1864      F1882   1.385       .  S
C1866      F1877   1.385       .  S
C1866      F1878   1.383       .  S
C1866      F1879   1.381       .  S
C1868      C1869   1.406       .  A
C1868      C1873   1.522       .  S
C1869      C1870   1.408       .  A
C1869      H1874   1.081       .  S
C1870      C1871   1.422       .  A
C1871      C1872   1.412       .  A
C1871      C1875   1.520       .  S
C1872      H1876   1.083       .  S
C1873      F1886   1.385       .  S
C1873      F1887   1.382       .  S
C1873      F1888   1.382       .  S
C1875      F1883   1.384       .  S
C1875      F1884   1.384       .  S
C1875      F1885   1.383       .  S
C1889      C1890   1.400       .  A
C1889      C1894   1.403       .  A
C1889      H1899   1.084       .  S
C1890      C1895   1.478       .  S
C1890      C1891   1.412       .  A
C1891      C1892   1.407       .  A
C1891      C1896   1.516       .  S
C1892      C1893   1.405       .  A
C1892      H1897   1.083       .  S
C1893      C1894   1.419       .  A
C1894      C1898   1.519       .  S
C1895      C1900   1.416       .  A
C1895      C1904   1.403       .  A
C1896      F1912   1.382       .  S
C1896      F1913   1.383       .  S
C1896      F1914   1.384       .  S
C1898      F1909   1.384       .  S
C1898      F1910   1.385       .  S
C1898      F1911   1.382       .  S
C1900      C1901   1.405       .  A
C1900      C1905   1.516       .  S
C1901      C1902   1.402       .  A
C1901      H1906   1.085       .  S
C1902      C1903   1.414       .  A
C1903      C1904   1.400       .  A
C1903      C1907   1.516       .  S
C1904      H1908   1.085       .  S
C1905      F1918   1.383       .  S
C1905      F1919   1.382       .  S
C1905      F1920   1.382       .  S
C1907      F1915   1.383       .  S
C1907      F1916   1.382       .  S
C1907      F1917   1.384       .  S
C1921      C1922   1.404       .  A
C1921      C1926   1.414       .  A
C1921      H1931   1.083       .  S
C1922      C1927   1.491       .  S
C1922      C1923   1.415       .  A
C1923      C1924   1.407       .  A
C1923      C1928   1.521       .  S
C1924      C1925   1.409       .  A
C1924      H1929   1.083       .  S
C1925      C1926   1.422       .  A
C1926      C1930   1.517       .  S
C1927      C1932   1.417       .  A
C1927      C1936   1.405       .  A
C1928      F1944   1.382       .  S
C1928      F1945   1.382   1_655  S
C1928      F1946   1.385   1_655  S
C1930      F1941   1.383       .  S
C1930      F1942   1.384       .  S
C1930      F1943   1.383       .  S
C1932      C1933   1.409       .  A
C1932      C1937   1.519       .  S
C1933      C1934   1.402       .  A
C1933      H1938   1.082       .  S
C1934      C1935   1.414       .  A
C1935      C1936   1.410       .  A
C1935      C1939   1.517       .  S
C1936      H1940   1.083       .  S
C1937      F1950   1.385       .  S
C1937      F1951   1.382       .  S
C1937      F1952   1.382       .  S
C1939      F1947   1.384       .  S
C1939      F1948   1.383       .  S
C1939      F1949   1.380       .  S
C1953      C1954   1.404       .  A
C1953      C1958   1.409       .  A
C1953      H1963   1.083       .  S
C1954      C1959   1.485       .  S
C1954      C1955   1.416       .  A
C1955      C1956   1.406       .  A
C1955      C1960   1.520       .  S
C1956      C1957   1.402       .  A
C1956      H1961   1.083       .  S
C1957      C1958   1.416       .  A
C1958      C1962   1.518       .  S
C1959      C1964   1.416       .  A
C1959      C1968   1.405       .  A
C1960      F1976   1.382       .  S
C1960      F1977   1.381       .  S
C1960      F1978   1.384       .  S
C1962      F1973   1.383   1_455  S
C1962      F1974   1.385       .  S
C1962      F1975   1.382   1_455  S
C1964      C1965   1.406       .  A
C1964      C1969   1.521       .  S
C1965      C1966   1.405       .  A
C1965      H1970   1.084       .  S
C1966      C1967   1.414       .  A
C1967      C1968   1.410       .  A
C1967      C1971   1.518       .  S
C1968      H1972   1.083       .  S
C1969      F1982   1.385       .  S
C1969      F1983   1.382       .  S
C1969      F1984   1.381       .  S
C1971      F1979   1.384       .  S
C1971      F1980   1.384       .  S
C1971      F1981   1.382       .  S
C1985      C1986   1.402       .  A
C1985      C1990   1.410       .  A
C1985      H1995   1.083       .  S
C1986      C1991   1.486       .  S
C1986      C1987   1.416       .  A
C1987      C1988   1.406       .  A
C1987      C1992   1.521       .  S
C1988      C1989   1.406       .  A
C1988      H1993   1.083       .  S
C1989      C1990   1.422       .  A
C1990      C1994   1.519       .  S
C1991      C1996   1.417       .  A
C1991      C2000   1.402       .  A
C1992      F2008   1.382       .  S
C1992      F2009   1.382       .  S
C1992      F2010   1.384       .  S
C1994      F2005   1.383       .  S
C1994      F2006   1.385       .  S
C1994      F2007   1.383       .  S
C1996      C1997   1.408       .  A
C1996      C2001   1.518       .  S
C1997      C1998   1.402       .  A
C1997      H2002   1.083   1_655  S
C1998      C1999   1.417       .  A
C1999      C2000   1.407       .  A
C1999      C2003   1.517       .  S
C2000      H2004   1.083       .  S
C2001      F2014   1.385       .  S
C2001      F2015   1.382       .  S
C2001      F2016   1.382       .  S
C2003      F2011   1.385       .  S
C2003      F2012   1.383       .  S
C2003      F2013   1.380       .  S
C2017      C2018   1.397       .  A
C2017      C2022   1.402       .  A
C2017      H2027   1.084       .  S
C2018      C2023   1.470       .  S
C2018      C2019   1.407       .  A
C2019      C2020   1.402       .  A
C2019      C2024   1.517       .  S
C2020      C2021   1.410       .  A
C2020      H2025   1.082       .  S
C2021      C2022   1.426       .  A
C2022      C2026   1.522   1_455  S
C2023      C2028   1.416       .  A
C2023      C2032   1.403       .  A
C2024      F2040   1.382       .  S
C2024      F2041   1.383       .  S
C2024      F2042   1.384       .  S
C2026      F2037   1.384       .  S
C2026      F2038   1.385       .  S
C2026      F2039   1.383       .  S
C2028      C2029   1.400       .  A
C2028      C2033   1.519       .  S
C2029      C2030   1.400       .  A
C2029      H2034   1.084       .  S
C2030      C2031   1.411       .  A
C2031      C2032   1.400       .  A
C2031      C2035   1.518       .  S
C2032      H2036   1.084       .  S
C2033      F2046   1.383       .  S
C2033      F2047   1.383       .  S
C2033      F2048   1.382       .  S
C2035      F2043   1.381       .  S
C2035      F2044   1.384       .  S
C2035      F2045   1.384       .  S
C2049      C2050   1.394   1_554  A
C2049      C2054   1.399       .  A
C2049      H2059   1.084   1_654  S
C2050      C2055   1.468       .  S
C2050      C2051   1.410   1_556  A
C2051      C2052   1.403       .  A
C2051      C2056   1.519   1_554  S
C2052      C2053   1.409       .  A
C2052      H2057   1.083       .  S
C2053      C2054   1.427       .  A
C2054      C2058   1.522   1_655  S
C2055      C2060   1.413   1_655  A
C2055      C2064   1.398       .  A
C2056      F2072   1.383       .  S
C2056      F2073   1.382       .  S
C2056      F2074   1.385       .  S
C2058      F2069   1.383       .  S
C2058      F2070   1.385       .  S
C2058      F2071   1.382   1_455  S
C2060      C2061   1.399       .  A
C2060      C2065   1.523       .  S
C2061      C2062   1.405       .  A
C2061      H2066   1.083       .  S
C2062      C2063   1.421   1_455  A
C2063      C2064   1.404       .  A
C2063      C2067   1.519       .  S
C2064      H2068   1.083       .  S
C2065      F2078   1.385       .  S
C2065      F2079   1.382       .  S
C2065      F2080   1.382       .  S
C2067      F2075   1.383       .  S
C2067      F2076   1.381       .  S
C2067      F2077   1.385       .  S
C2081      C2082   1.400       .  A
C2081      C2086   1.406   1_554  A
C2081      H2091   1.083   1_455  S
C2082      C2087   1.481       .  S
C2082      C2083   1.415       .  A
C2083      C2084   1.404   1_554  A
C2083      C2088   1.517       .  S
C2084      C2085   1.407       .  A
C2084      H2089   1.084       .  S
C2085      C2086   1.427       .  A
C2086      C2090   1.523   1_455  S
C2087      C2092   1.415       .  A
C2087      C2096   1.401       .  A
C2088      F2104   1.383       .  S
C2088      F2105   1.382       .  S
C2088      F2106   1.384       .  S
C2090      F2101   1.383       .  S
C2090      F2102   1.385       .  S
C2090      F2103   1.384       .  S
C2092      C2093   1.408       .  A
C2092      C2097   1.518       .  S
C2093      C2094   1.405       .  A
C2093      H2098   1.084       .  S
C2094      C2095   1.416       .  A
C2095      C2096   1.403       .  A
C2095      C2099   1.518       .  S
C2096      H2100   1.084       .  S
C2097      F2110   1.385       .  S
C2097      F2111   1.382       .  S
C2097      F2112   1.383       .  S
C2099      F2107   1.381   1_455  S
C2099      F2108   1.384       .  S
C2099      F2109   1.385       .  S
C2113      C2114   1.398       .  A
C2113      C2118   1.403       .  A
C2113      H2123   1.084       .  S
C2114      C2119   1.473       .  S
C2114      C2115   1.410       .  A
C2115      C2116   1.403       .  A
C2115      C2120   1.519       .  S
C2116      C2117   1.408       .  A
C2116      H2121   1.083       .  S
C2117      C2118   1.422       .  A
C2118      C2122   1.519       .  S
C2119      C2124   1.413   1_655  A
C2119      C2128   1.399       .  A
C2120      F2136   1.383       .  S
C2120      F2137   1.382       .  S
C2120      F2138   1.384       .  S
C2122      F2133   1.382   1_655  S
C2122      F2134   1.385   1_655  S
C2122      F2135   1.385       .  S
C2124      C2125   1.399       .  A
C2124      C2129   1.524       .  S
C2125      C2126   1.404       .  A
C2125      H2130   1.079       .  S
C2126      C2127   1.423   1_455  A
C2127      C2128   1.408       .  A
C2127      C2131   1.519       .  S
C2128      H2132   1.083       .  S
C2129      F2142   1.384       .  S
C2129      F2143   1.382       .  S
C2129      F2144   1.382   1_455  S
C2131      F2139   1.383       .  S
C2131      F2140   1.384       .  S
C2131      F2141   1.385       .  S
C2145      C2146   1.399       .  A
C2145      C2150   1.408       .  A
C2145      H2155   1.083       .  S
C2146      C2151   1.479       .  S
C2146      C2147   1.413       .  A
C2147      C2148   1.403       .  A
C2147      C2152   1.521       .  S
C2148      C2149   1.408       .  A
C2148      H2153   1.083       .  S
C2149      C2150   1.424       .  A
C2150      C2154   1.516       .  S
C2151      C2156   1.413       .  A
C2151      C2160   1.398       .  A
C2152      F2168   1.382       .  S
C2152      F2169   1.382       .  S
C2152      F2170   1.385       .  S
C2154      F2165   1.385       .  S
C2154      F2166   1.384       .  S
C2154      F2167   1.382       .  S
C2156      C2157   1.406       .  A
C2156      C2161   1.518       .  S
C2157      C2158   1.407       .  A
C2157      H2162   1.083       .  S
C2158      C2159   1.424       .  A
C2159      C2160   1.403       .  A
C2159      C2163   1.521       .  S
C2160      H2164   1.084       .  S
C2161      F2174   1.384       .  S
C2161      F2175   1.382       .  S
C2161      F2176   1.382       .  S
C2163      F2171   1.385       .  S
C2163      F2172   1.384       .  S
C2163      F2173   1.383       .  S
C2177      C2178   1.399       .  A
C2177      C2182   1.408       .  A
C2177      H2187   1.083       .  S
C2178      C2183   1.478       .  S
C2178      C2179   1.410       .  A
C2179      C2180   1.402       .  A
C2179      C2184   1.522       .  S
C2180      C2181   1.413       .  A
C2180      H2185   1.082       .  S
C2181      C2182   1.427       .  A
C2182      C2186   1.521       .  S
C2183      C2188   1.411       .  A
C2183      C2192   1.397       .  A
C2184      F2200   1.382       .  S
C2184      F2201   1.382       .  S
C2184      F2202   1.384       .  S
C2186      F2197   1.383       .  S
C2186      F2198   1.385       .  S
C2186      F2199   1.383       .  S
C2188      C2189   1.404       .  A
C2188      C2193   1.521       .  S
C2189      C2190   1.411       .  A
C2189      H2194   1.082       .  S
C2190      C2191   1.428       .  A
C2191      C2192   1.405       .  A
C2191      C2195   1.522       .  S
C2192      H2196   1.083       .  S
C2193      F2206   1.385       .  S
C2193      F2207   1.382       .  S
C2193      F2208   1.382       .  S
C2195      F2203   1.381   1_556  S
C2195      F2204   1.381       .  S
C2195      F2205   1.385       .  S
C2209      C2210   1.401       .  A
C2209      C2214   1.412       .  A
C2209      H2219   1.083       .  S
C2210      C2215   1.480       .  S
C2210      C2211   1.414       .  A
C2211      C2212   1.400       .  A
C2211      C2216   1.525       .  S
C2212      C2213   1.409       .  A
C2212      H2217   1.082       .  S
C2213      C2214   1.427       .  A
C2214      C2218   1.520       .  S
C2215      C2220   1.410       .  A
C2215      C2224   1.398       .  A
C2216      F2232   1.382       .  S
C2216      F2233   1.380       .  S
C2216      F2234   1.385       .  S
C2218      F2229   1.385       .  S
C2218      F2230   1.384       .  S
C2218      F2231   1.384       .  S
C2220      C2221   1.409       .  A
C2220      C2225   1.519       .  S
C2221      C2222   1.411       .  A
C2221      H2226   1.082       .  S
C2222      C2223   1.422       .  A
C2223      C2224   1.404       .  A
C2223      C2227   1.513       .  S
C2224      H2228   1.084       .  S
C2225      F2238   1.384       .  S
C2225      F2239   1.383       .  S
C2225      F2240   1.382       .  S
C2227      F2235   1.385       .  S
C2227      F2236   1.384       .  S
C2227      F2237   1.381       .  S
C2241      C2242   1.404       .  A
C2241      C2246   1.413       .  A
C2241      H2251   1.083       .  S
C2242      C2247   1.483       .  S
C2242      C2243   1.417       .  A
C2243      C2244   1.398       .  A
C2243      C2248   1.524       .  S
C2244      C2245   1.403       .  A
C2244      H2249   1.081       .  S
C2245      C2246   1.420       .  A
C2246      C2250   1.517       .  S
C2247      C2252   1.416       .  A
C2247      C2256   1.401       .  A
C2248      F2264   1.381       .  S
C2248      F2265   1.383       .  S
C2248      F2266   1.385       .  S
C2250      F2261   1.383       .  S
C2250      F2262   1.385       .  S
C2250      F2263   1.383       .  S
C2252      C2253   1.404       .  A
C2252      C2257   1.519       .  S
C2253      C2254   1.401       .  A
C2253      H2258   1.084       .  S
C2254      C2255   1.417       .  A
C2255      C2256   1.407       .  A
C2255      C2259   1.517       .  S
C2256      H2260   1.083       .  S
C2257      F2270   1.385       .  S
C2257      F2271   1.382       .  S
C2257      F2272   1.383       .  S
C2259      F2267   1.382       .  S
C2259      F2268   1.382       .  S
C2259      F2269   1.385       .  S
C2273      C2274   1.402       .  A
C2273      C2278   1.409       .  A
C2273      H2283   1.083       .  S
C2274      C2279   1.485       .  S
C2274      C2275   1.415       .  A
C2275      C2276   1.406       .  A
C2275      C2280   1.521       .  S
C2276      C2277   1.407       .  A
C2276      H2281   1.083       .  S
C2277      C2278   1.421       .  A
C2278      C2282   1.519       .  S
C2279      C2284   1.414       .  A
C2279      C2288   1.400       .  A
C2280      F2296   1.382       .  S
C2280      F2297   1.382       .  S
C2280      F2298   1.384       .  S
C2282      F2293   1.385       .  S
C2282      F2294   1.383       .  S
C2282      F2295   1.383       .  S
C2284      C2285   1.408       .  A
C2284      C2289   1.519       .  S
C2285      C2286   1.407       .  A
C2285      H2290   1.083       .  S
C2286      C2287   1.422       .  A
C2287      C2288   1.407       .  A
C2287      C2291   1.516       .  S
C2288      H2292   1.083       .  S
C2289      F2302   1.384       .  S
C2289      F2303   1.382       .  S
C2289      F2304   1.382       .  S
C2291      F2299   1.385       .  S
C2291      F2300   1.382       .  S
C2291      F2301   1.382       .  S
C2305      C2306   1.401       .  A
C2305      C2310   1.407       .  A
C2305      H2315   1.083       .  S
C2306      C2311   1.479       .  S
C2306      C2307   1.413       .  A
C2307      C2308   1.404       .  A
C2307      C2312   1.520       .  S
C2308      C2309   1.405       .  A
C2308      H2313   1.083       .  S
C2309      C2310   1.419       .  A
C2310      C2314   1.518       .  S
C2311      C2316   1.414       .  A
C2311      C2320   1.402       .  A
C2312      F2328   1.383       .  S
C2312      F2329   1.382       .  S
C2312      F2330   1.385       .  S
C2314      F2325   1.385       .  S
C2314      F2326   1.382       .  S
C2314      F2327   1.383       .  S
C2316      C2317   1.403       .  A
C2316      C2321   1.522       .  S
C2317      C2318   1.405       .  A
C2317      H2322   1.083       .  S
C2318      C2319   1.419       .  A
C2319      C2320   1.409       .  A
C2319      C2323   1.519       .  S
C2320      H2324   1.083       .  S
C2321      F2334   1.385       .  S
C2321      F2335   1.382       .  S
C2321      F2336   1.382       .  S
C2323      F2331   1.384       .  S
C2323      F2332   1.384       .  S
C2323      F2333   1.382       .  S
C2337      C2338   1.399       .  A
C2337      C2342   1.409       .  A
C2337      H2347   1.083       .  S
C2338      C2343   1.479       .  S
C2338      C2339   1.412       .  A
C2339      C2340   1.402       .  A
C2339      C2344   1.522       .  S
C2340      C2341   1.411       .  A
C2340      H2345   1.082       .  S
C2341      C2342   1.426       .  A
C2342      C2346   1.519       .  S
C2343      C2348   1.414       .  A
C2343      C2352   1.403       .  A
C2344      F2360   1.382       .  S
C2344      F2361   1.383       .  S
C2344      F2362   1.385       .  S
C2346      F2357   1.385       .  S
C2346      F2358   1.383       .  S
C2346      F2359   1.383       .  S
C2348      C2349   1.398       .  A
C2348      C2353   1.522       .  S
C2349      C2350   1.400       .  A
C2349      H2354   1.065       .  S
C2350      C2351   1.417       .  A
C2351      C2352   1.411       .  A
C2351      C2355   1.516       .  S
C2352      H2356   1.081       .  S
C2353      F2366   1.384       .  S
C2353      F2367   1.381       .  S
C2353      F2368   1.383       .  S
C2355      F2363   1.384       .  S
C2355      F2364   1.382       .  S
C2355      F2365   1.380       .  S
C2369      C2370   1.396       .  A
C2369      C2374   1.403       .  A
C2369      H2379   1.084       .  S
C2370      C2375   1.475       .  S
C2370      C2371   1.410       .  A
C2371      C2372   1.405       .  A
C2371      C2376   1.519       .  S
C2372      C2373   1.410       .  A
C2372      H2377   1.080       .  S
C2373      C2374   1.428       .  A
C2374      C2378   1.523       .  S
C2375      C2380   1.414       .  A
C2375      C2384   1.401       .  A
C2376      F2392   1.382       .  S
C2376      F2393   1.382       .  S
C2376      F2394   1.384       .  S
C2378      F2389   1.385       .  S
C2378      F2390   1.384       .  S
C2378      F2391   1.383       .  S
C2380      C2381   1.402       .  A
C2380      C2385   1.522       .  S
C2381      C2382   1.404       .  A
C2381      H2386   1.084       .  S
C2382      C2383   1.416       .  A
C2383      C2384   1.406       .  A
C2383      C2387   1.517       .  S
C2384      H2388   1.083       .  S
C2385      F2398   1.383       .  S
C2385      F2399   1.382       .  S
C2385      F2400   1.381       .  S
C2387      F2395   1.384       .  S
C2387      F2396   1.381       .  S
C2387      F2397   1.384       .  S
C2401      C2402   1.404       .  A
C2401      C2406   1.410       .  A
C2401      H2411   1.083       .  S
C2402      C2407   1.486       .  S
C2402      C2403   1.416       .  A
C2403      C2404   1.405       .  A
C2403      C2408   1.520       .  S
C2404      C2405   1.402       .  A
C2404      H2409   1.084       .  S
C2405      C2406   1.415       .  A
C2406      C2410   1.517       .  S
C2407      C2412   1.414       .  A
C2407      C2416   1.402       .  A
C2408      F2424   1.383       .  S
C2408      F2425   1.382       .  S
C2408      F2426   1.385       .  S
C2410      F2421   1.384       .  S
C2410      F2422   1.382       .  S
C2410      F2423   1.384       .  S
C2412      C2413   1.405       .  A
C2412      C2417   1.520       .  S
C2413      C2414   1.406       .  A
C2413      H2418   1.083       .  S
C2414      C2415   1.423       .  A
C2415      C2416   1.412       .  A
C2415      C2419   1.518       .  S
C2416      H2420   1.083       .  S
C2417      F2430   1.384       .  S
C2417      F2431   1.383       .  S
C2417      F2432   1.382       .  S
C2419      F2427   1.383       .  S
C2419      F2428   1.380       .  S
C2419      F2429   1.385       .  S
C2433      C2434   1.400       .  A
C2433      C2438   1.408       .  A
C2433      H2443   1.083       .  S
C2434      C2439   1.480       .  S
C2434      C2435   1.415       .  A
C2435      C2436   1.404       .  A
C2435      C2440   1.521       .  S
C2436      C2437   1.404       .  A
C2436      H2441   1.081       .  S
C2437      C2438   1.422       .  A
C2438      C2442   1.520       .  S
C2439      C2444   1.413       .  A
C2439      C2448   1.397       .  A
C2440      F2456   1.382       .  S
C2440      F2457   1.382       .  S
C2440      F2458   1.384       .  S
C2442      F2453   1.384   1_554  S
C2442      F2454   1.383       .  S
C2442      F2455   1.383   1_554  S
C2444      C2445   1.408       .  A
C2444      C2449   1.519       .  S
C2445      C2446   1.407       .  A
C2445      H2450   1.083       .  S
C2446      C2447   1.424       .  A
C2447      C2448   1.404       .  A
C2447      C2451   1.521       .  S
C2448      H2452   1.083       .  S
C2449      F2462   1.385       .  S
C2449      F2463   1.383       .  S
C2449      F2464   1.382       .  S
C2451      F2459   1.383       .  S
C2451      F2460   1.383       .  S
C2451      F2461   1.385       .  S
C2465      C2466   1.399       .  A
C2465      C2470   1.403       .  A
C2465      H2475   1.084       .  S
C2466      C2471   1.477       .  S
C2466      C2467   1.410       .  A
C2467      C2468   1.406       .  A
C2467      C2472   1.516       .  S
C2468      C2469   1.411       .  A
C2468      H2473   1.082       .  S
C2469      C2470   1.424       .  A
C2470      C2474   1.520       .  S
C2471      C2476   1.415       .  A
C2471      C2480   1.399       .  A
C2472      F2488   1.383       .  S
C2472      F2489   1.382       .  S
C2472      F2490   1.384       .  S
C2474      F2485   1.383       .  S
C2474      F2486   1.385       .  S
C2474      F2487   1.384       .  S
C2476      C2477   1.398       .  A
C2476      C2481   1.521       .  S
C2477      C2478   1.409       .  A
C2477      H2482   1.084       .  S
C2478      C2479   1.427       .  A
C2479      C2480   1.410       .  A
C2479      C2483   1.517       .  S
C2480      H2484   1.083       .  S
C2481      F2494   1.384       .  S
C2481      F2495   1.384       .  S
C2481      F2496   1.380       .  S
C2483      F2491   1.383       .  S
C2483      F2492   1.380       .  S
C2483      F2493   1.385       .  S
C2497      C2498   1.402       .  A
C2497      C2502   1.410       .  A
C2497      H2507   1.083       .  S
C2498      C2503   1.485       .  S
C2498      C2499   1.414       .  A
C2499      C2500   1.404       .  A
C2499      C2504   1.521       .  S
C2500      C2501   1.408       .  A
C2500      H2505   1.083       .  S
C2501      C2502   1.423       .  A
C2502      C2506   1.519       .  S
C2503      C2508   1.416       .  A
C2503      C2512   1.400       .  A
C2504      F2520   1.382       .  S
C2504      F2521   1.383       .  S
C2504      F2522   1.383       .  S
C2506      F2517   1.385       .  S
C2506      F2518   1.383       .  S
C2506      F2519   1.383       .  S
C2508      C2509   1.408       .  A
C2508      C2513   1.518       .  S
C2509      C2510   1.403       .  A
C2509      H2514   1.083       .  S
C2510      C2511   1.420       .  A
C2511      C2512   1.406       .  A
C2511      C2515   1.518       .  S
C2512      H2516   1.083       .  S
C2513      F2526   1.384       .  S
C2513      F2527   1.382       .  S
C2513      F2528   1.382       .  S
C2515      F2523   1.384       .  S
C2515      F2524   1.382       .  S
C2515      F2525   1.381   1_455  S
C2529      C2530   1.398       .  A
C2529      C2534   1.396       .  A
C2529      H2539   1.084       .  S
C2530      C2535   1.470       .  S
C2530      C2531   1.413       .  A
C2531      C2532   1.405       .  A
C2531      C2536   1.517       .  S
C2532      C2533   1.402       .  A
C2532      H2537   1.083       .  S
C2533      C2534   1.415       .  A
C2534      C2538   1.517       .  S
C2535      C2540   1.414       .  A
C2535      C2544   1.400       .  A
C2536      F2552   1.382       .  S
C2536      F2553   1.382       .  S
C2536      F2554   1.385       .  S
C2538      F2549   1.385       .  S
C2538      F2550   1.381       .  S
C2538      F2551   1.383       .  S
C2540      C2541   1.398       .  A
C2540      C2545   1.519       .  S
C2541      C2542   1.402       .  A
C2541      H2546   1.084       .  S
C2542      C2543   1.419       .  A
C2543      C2544   1.404       .  A
C2543      C2547   1.521       .  S
C2544      H2548   1.083       .  S
C2545      F2558   1.385       .  S
C2545      F2559   1.382       .  S
C2545      F2560   1.383       .  S
C2547      F2555   1.384       .  S
C2547      F2556   1.384       .  S
C2547      F2557   1.383       .  S
C2561      C2562   1.397       .  A
C2561      C2566   1.398       .  A
C2561      H2571   1.084       .  S
C2562      C2567   1.467       .  S
C2562      C2563   1.413       .  A
C2563      C2564   1.399       .  A
C2563      C2568   1.517       .  S
C2564      C2565   1.405       .  A
C2564      H2569   1.084       .  S
C2565      C2566   1.423       .  A
C2566      C2570   1.522       .  S
C2567      C2572   1.411       .  A
C2567      C2576   1.401       .  A
C2568      F2584   1.383       .  S
C2568      F2585   1.382       .  S
C2568      F2586   1.383       .  S
C2570      F2581   1.385       .  S
C2570      F2582   1.381       .  S
C2570      F2583   1.381       .  S
C2572      C2573   1.401       .  A
C2572      C2577   1.518       .  S
C2573      C2574   1.404       .  A
C2573      H2578   1.084       .  S
C2574      C2575   1.415       .  A
C2575      C2576   1.400       .  A
C2575      C2579   1.519       .  S
C2576      H2580   1.084       .  S
C2577      F2590   1.385       .  S
C2577      F2591   1.382       .  S
C2577      F2592   1.383       .  S
C2579      F2587   1.382       .  S
C2579      F2588   1.384       .  S
C2579      F2589   1.385       .  S
C2593      C2594   1.404       .  A
C2593      C2598   1.412       .  A
C2593      H2603   1.083       .  S
C2594      C2599   1.484       .  S
C2594      C2595   1.415       .  A
C2595      C2596   1.401       .  A
C2595      C2600   1.521       .  S
C2596      C2597   1.403       .  A
C2596      H2601   1.079       .  S
C2597      C2598   1.420       .  A
C2598      C2602   1.519       .  S
C2599      C2604   1.418       .  A
C2599      C2608   1.400       .  A
C2600      F2616   1.382       .  S
C2600      F2617   1.382       .  S
C2600      F2618   1.385       .  S
C2602      F2613   1.382       .  S
C2602      F2614   1.385       .  S
C2602      F2615   1.384       .  S
C2604      C2605   1.409       .  A
C2604      C2609   1.518       .  S
C2605      C2606   1.402       .  A
C2605      H2610   1.083       .  S
C2606      C2607   1.417       .  A
C2607      C2608   1.405       .  A
C2607      C2611   1.519   1_556  S
C2608      H2612   1.083       .  S
C2609      F2622   1.385       .  S
C2609      F2623   1.382       .  S
C2609      F2624   1.383       .  S
C2611      F2619   1.385       .  S
C2611      F2620   1.382       .  S
C2611      F2621   1.382       .  S
C2625      C2626   1.398       .  A
C2625      C2630   1.405       .  A
C2625      H2635   1.083       .  S
C2626      C2631   1.471       .  S
C2626      C2627   1.414       .  A
C2627      C2628   1.400       .  A
C2627      C2632   1.523       .  S
C2628      C2629   1.405       .  A
C2628      H2633   1.083       .  S
C2629      C2630   1.422       .  A
C2630      C2634   1.519       .  S
C2631      C2636   1.413       .  A
C2631      C2640   1.400       .  A
C2632      F2648   1.382       .  S
C2632      F2649   1.382       .  S
C2632      F2650   1.385       .  S
C2634      F2645   1.383       .  S
C2634      F2646   1.385       .  S
C2634      F2647   1.384       .  S
C2636      C2637   1.402       .  A
C2636      C2641   1.519       .  S
C2637      C2638   1.402       .  A
C2637      H2642   1.084       .  S
C2638      C2639   1.413       .  A
C2639      C2640   1.401       .  A
C2639      C2643   1.516       .  S
C2640      H2644   1.083       .  S
C2641      F2654   1.385       .  S
C2641      F2655   1.382       .  S
C2641      F2656   1.382       .  S
C2643      F2651   1.383       .  S
C2643      F2652   1.382       .  S
C2643      F2653   1.385       .  S
C2657      C2658   1.400       .  A
C2657      C2662   1.410       .  A
C2657      H2667   1.083       .  S
C2658      C2663   1.479       .  S
C2658      C2659   1.413       .  A
C2659      C2660   1.401       .  A
C2659      C2664   1.523       .  S
C2660      C2661   1.410       .  A
C2660      H2665   1.081       .  S
C2661      C2662   1.426       .  A
C2662      C2666   1.520       .  S
C2663      C2668   1.414       .  A
C2663      C2672   1.397       .  A
C2664      F2680   1.382       .  S
C2664      F2681   1.382       .  S
C2664      F2682   1.385       .  S
C2666      F2677   1.385       .  S
C2666      F2678   1.383       .  S
C2666      F2679   1.383       .  S
C2668      C2669   1.409       .  A
C2668      C2673   1.517       .  S
C2669      C2670   1.405       .  A
C2669      H2674   1.082       .  S
C2670      C2671   1.423       .  A
C2671      C2672   1.401       .  A
C2671      C2675   1.521       .  S
C2672      H2676   1.084       .  S
C2673      F2686   1.384       .  S
C2673      F2687   1.383       .  S
C2673      F2688   1.382       .  S
C2675      F2683   1.385       .  S
C2675      F2684   1.384       .  S
C2675      F2685   1.383       .  S
C2689      C2690   1.401   1_554  A
C2689      C2694   1.409       .  A
C2689      H2699   1.083       .  S
C2690      C2695   1.478   1_556  S
C2690      C2691   1.413       .  A
C2691      C2692   1.401       .  A
C2691      C2696   1.522       .  S
C2692      C2693   1.407       .  A
C2692      H2697   1.083       .  S
C2693      C2694   1.422   1_556  A
C2694      C2698   1.519       .  S
C2695      C2700   1.411   1_554  A
C2695      C2704   1.397       .  A
C2696      F2712   1.382       .  S
C2696      F2713   1.382       .  S
C2696      F2714   1.384       .  S
C2698      F2709   1.383       .  S
C2698      F2710   1.385       .  S
C2698      F2711   1.383       .  S
C2700      C2701   1.406   1_556  A
C2700      C2705   1.518       .  S
C2701      C2702   1.409       .  A
C2701      H2706   1.083   1_554  S
C2702      C2703   1.425       .  A
C2703      C2704   1.402       .  A
C2703      C2707   1.519       .  S
C2704      H2708   1.084       .  S
C2705      F2718   1.384       .  S
C2705      F2719   1.383       .  S
C2705      F2720   1.382       .  S
C2707      F2715   1.383       .  S
C2707      F2716   1.383       .  S
C2707      F2717   1.385       .  S
C2721      C2722   1.396       .  A
C2721      C2726   1.402       .  A
C2721      H2731   1.083       .  S
C2722      C2727   1.482       .  S
C2722      C2723   1.415       .  A
C2723      C2724   1.410       .  A
C2723      C2728   1.518       .  S
C2724      C2725   1.406       .  A
C2724      H2729   1.083       .  S
C2725      C2726   1.424       .  A
C2726      C2730   1.521       .  S
C2727      C2732   1.416       .  A
C2727      C2736   1.403       .  A
C2728      F2744   1.382       .  S
C2728      F2745   1.382       .  S
C2728      F2746   1.384       .  S
C2730      F2741   1.385       .  S
C2730      F2742   1.381       .  S
C2730      F2743   1.383       .  S
C2732      C2733   1.405       .  A
C2732      C2737   1.520       .  S
C2733      C2734   1.399       .  A
C2733      H2738   1.078       .  S
C2734      C2735   1.414       .  A
C2735      C2736   1.407       .  A
C2735      C2739   1.517       .  S
C2736      H2740   1.083       .  S
C2737      F2750   1.385       .  S
C2737      F2751   1.382       .  S
C2737      F2752   1.382       .  S
C2739      F2747   1.385       .  S
C2739      F2748   1.383       .  S
C2739      F2749   1.381       .  S
C2753      C2754   1.403       .  A
C2753      C2758   1.409       .  A
C2753      H2763   1.083       .  S
C2754      C2759   1.485       .  S
C2754      C2755   1.414       .  A
C2755      C2756   1.405       .  A
C2755      C2760   1.520       .  S
C2756      C2757   1.406       .  A
C2756      H2761   1.083       .  S
C2757      C2758   1.420       .  A
C2758      C2762   1.519       .  S
C2759      C2764   1.414       .  A
C2759      C2768   1.399       .  A
C2760      F2776   1.382       .  S
C2760      F2777   1.382       .  S
C2760      F2778   1.385       .  S
C2762      F2773   1.382       .  S
C2762      F2774   1.385       .  S
C2762      F2775   1.383       .  S
C2764      C2765   1.406       .  A
C2764      C2769   1.519       .  S
C2765      C2766   1.407       .  A
C2765      H2770   1.083       .  S
C2766      C2767   1.426       .  A
C2767      C2768   1.407       .  A
C2767      C2771   1.521       .  S
C2768      H2772   1.083       .  S
C2769      F2782   1.385       .  S
C2769      F2783   1.382       .  S
C2769      F2784   1.382       .  S
C2771      F2779   1.385       .  S
C2771      F2780   1.383       .  S
C2771      F2781   1.384       .  S
C2785      C2786   1.399       .  A
C2785      C2790   1.402       .  A
C2785      H2795   1.084       .  S
C2786      C2791   1.479       .  S
C2786      C2787   1.410       .  A
C2787      C2788   1.409       .  A
C2787      C2792   1.517       .  S
C2788      C2789   1.410       .  A
C2788      H2793   1.083       .  S
C2789      C2790   1.420       .  A
C2790      C2794   1.517       .  S
C2791      C2796   1.415       .  A
C2791      C2800   1.402       .  A
C2792      F2808   1.383       .  S
C2792      F2809   1.382       .  S
C2792      F2810   1.384       .  S
C2794      F2805   1.382       .  S
C2794      F2806   1.385       .  S
C2794      F2807   1.384       .  S
C2796      C2797   1.400       .  A
C2796      C2801   1.524       .  S
C2797      C2798   1.406       .  A
C2797      H2802   1.083       .  S
C2798      C2799   1.422       .  A
C2799      C2800   1.412       .  A
C2799      C2803   1.518       .  S
C2800      H2804   1.083       .  S
C2801      F2814   1.385       .  S
C2801      F2815   1.382       .  S
C2801      F2816   1.381       .  S
C2803      F2811   1.383       .  S
C2803      F2812   1.384       .  S
C2803      F2813   1.385       .  S
C2817      C2818   1.401       .  A
C2817      C2822   1.407       .  A
C2817      H2827   1.083       .  S
C2818      C2823   1.482       .  S
C2818      C2819   1.414       .  A
C2819      C2820   1.406       .  A
C2819      C2824   1.520       .  S
C2820      C2821   1.406       .  A
C2820      H2825   1.083       .  S
C2821      C2822   1.420       .  A
C2822      C2826   1.518       .  S
C2823      C2828   1.415       .  A
C2823      C2832   1.397       .  A
C2824      F2840   1.382       .  S
C2824      F2841   1.382       .  S
C2824      F2842   1.385       .  S
C2826      F2837   1.380       .  S
C2826      F2838   1.385       .  S
C2826      F2839   1.379       .  S
C2828      C2829   1.409       .  A
C2828      C2833   1.520       .  S
C2829      C2830   1.408       .  A
C2829      H2834   1.083       .  S
C2830      C2831   1.424       .  A
C2831      C2832   1.404       .  A
C2831      C2835   1.517       .  S
C2832      H2836   1.083       .  S
C2833      F2846   1.385       .  S
C2833      F2847   1.382       .  S
C2833      F2848   1.382       .  S
C2835      F2843   1.385       .  S
C2835      F2844   1.383       .  S
C2835      F2845   1.383       .  S
C2849      C2850   1.402       .  A
C2849      C2854   1.412       .  A
C2849      H2859   1.083       .  S
C2850      C2855   1.479       .  S
C2850      C2851   1.414       .  A
C2851      C2852   1.399       .  A
C2851      C2856   1.525       .  S
C2852      C2853   1.408       .  A
C2852      H2857   1.082       .  S
C2853      C2854   1.421       .  A
C2854      C2858   1.517       .  S
C2855      C2860   1.411       .  A
C2855      C2864   1.398       .  A
C2856      F2872   1.382       .  S
C2856      F2873   1.382       .  S
C2856      F2874   1.385       .  S
C2858      F2869   1.385       .  S
C2858      F2870   1.382       .  S
C2858      F2871   1.384       .  S
C2860      C2861   1.407       .  A
C2860      C2865   1.517       .  S
C2861      C2862   1.409       .  A
C2861      H2866   1.080       .  S
C2862      C2863   1.421       .  A
C2863      C2864   1.402       .  A
C2863      C2867   1.512       .  S
C2864      H2868   1.084       .  S
C2865      F2878   1.384       .  S
C2865      F2879   1.382       .  S
C2865      F2880   1.382       .  S
C2867      F2875   1.385       .  S
C2867      F2876   1.384       .  S
C2867      F2877   1.382       .  S
C2881      C2882   1.402       .  A
C2881      C2886   1.410       .  A
C2881      H2891   1.083       .  S
C2882      C2887   1.486       .  S
C2882      C2883   1.416       .  A
C2883      C2884   1.406       .  A
C2883      C2888   1.520       .  S
C2884      C2885   1.403       .  A
C2884      H2889   1.084       .  S
C2885      C2886   1.418       .  A
C2886      C2890   1.518       .  S
C2887      C2892   1.414       .  A
C2887      C2896   1.401       .  A
C2888      F2904   1.383       .  S
C2888      F2905   1.382       .  S
C2888      F2906   1.384       .  S
C2890      F2901   1.383       .  S
C2890      F2902   1.385       .  S
C2890      F2903   1.382       .  S
C2892      C2893   1.405       .  A
C2892      C2897   1.520       .  S
C2893      C2894   1.407       .  A
C2893      H2898   1.083       .  S
C2894      C2895   1.425       .  A
C2895      C2896   1.410       .  A
C2895      C2899   1.521       .  S
C2896      H2900   1.083       .  S
C2897      F2910   1.384       .  S
C2897      F2911   1.382       .  S
C2897      F2912   1.382       .  S
C2899      F2907   1.385       .  S
C2899      F2908   1.383       .  S
C2899      F2909   1.384       .  S
C2913      C2914   1.399       .  A
C2913      C2918   1.407       .  A
C2913      H2923   1.083       .  S
C2914      C2919   1.479       .  S
C2914      C2915   1.412       .  A
C2915      C2916   1.403       .  A
C2915      C2920   1.520       .  S
C2916      C2917   1.408       .  A
C2916      H2921   1.083       .  S
C2917      C2918   1.425       .  A
C2918      C2922   1.520       .  S
C2919      C2924   1.414       .  A
C2919      C2928   1.400       .  A
C2920      F2936   1.383       .  S
C2920      F2937   1.382       .  S
C2920      F2938   1.384       .  S
C2922      F2933   1.385       .  S
C2922      F2934   1.383       .  S
C2922      F2935   1.380       .  S
C2924      C2925   1.406       .  A
C2924      C2929   1.519       .  S
C2925      C2926   1.404       .  A
C2925      H2930   1.083       .  S
C2926      C2927   1.416       .  A
C2927      C2928   1.404       .  A
C2927      C2931   1.516       .  S
C2928      H2932   1.083       .  S
C2929      F2942   1.385   1_556  S
C2929      F2943   1.383       .  S
C2929      F2944   1.382       .  S
C2931      F2939   1.382       .  S
C2931      F2940   1.383       .  S
C2931      F2941   1.384       .  S
C2945      C2946   1.403       .  A
C2945      C2950   1.402       .  A
C2945      H2955   1.084       .  S
C2946      C2951   1.483       .  S
C2946      C2947   1.415       .  A
C2947      C2948   1.408       .  A
C2947      C2952   1.517       .  S
C2948      C2949   1.405       .  A
C2948      H2953   1.083       .  S
C2949      C2950   1.417       .  A
C2950      C2954   1.519       .  S
C2951      C2956   1.417       .  A
C2951      C2960   1.402       .  A
C2952      F2968   1.382       .  S
C2952      F2969   1.382       .  S
C2952      F2970   1.384       .  S
C2954      F2965   1.385       .  S
C2954      F2966   1.382       .  S
C2954      F2967   1.384       .  S
C2956      C2957   1.409       .  A
C2956      C2961   1.518       .  S
C2957      C2958   1.403       .  A
C2957      H2962   1.083       .  S
C2958      C2959   1.415       .  A
C2959      C2960   1.402       .  A
C2959      C2963   1.515       .  S
C2960      H2964   1.084       .  S
C2961      F2974   1.384       .  S
C2961      F2975   1.381       .  S
C2961      F2976   1.381       .  S
C2963      F2971   1.380       .  S
C2963      F2972   1.384       .  S
C2963      F2973   1.385       .  S
C2977      C2978   1.401       .  A
C2977      C2982   1.406       .  A
C2977      H2987   1.083       .  S
C2978      C2983   1.479       .  S
C2978      C2979   1.414       .  A
C2979      C2980   1.403       .  A
C2979      C2984   1.519       .  S
C2980      C2981   1.403       .  A
C2980      H2985   1.083       .  S
C2981      C2982   1.418       .  A
C2982      C2986   1.519       .  S
C2983      C2988   1.413       .  A
C2983      C2992   1.402       .  A
C2984      F3000   1.383       .  S
C2984      F3001   1.383       .  S
C2984      F3002   1.384       .  S
C2986      F2997   1.385       .  S
C2986      F2998   1.382       .  S
C2986      F2999   1.383       .  S
C2988      C2989   1.401       .  A
C2988      C2993   1.521       .  S
C2989      C2990   1.405       .  A
C2989      H2994   1.083       .  S
C2990      C2991   1.422       .  A
C2991      C2992   1.409       .  A
C2991      C2995   1.521       .  S
C2992      H2996   1.083       .  S
C2993      F3006   1.384   1_556  S
C2993      F3007   1.382       .  S
C2993      F3008   1.383       .  S
C2995      F3003   1.385       .  S
C2995      F3004   1.383       .  S
C2995      F3005   1.383       .  S
C3009      C3010   1.401       .  A
C3009      C3014   1.407   1_554  A
C3009      H3019   1.083       .  S
C3010      C3015   1.480       .  S
C3010      C3011   1.415       .  A
C3011      C3012   1.403   1_554  A
C3011      C3016   1.520       .  S
C3012      C3013   1.403       .  A
C3012      H3017   1.082       .  S
C3013      C3014   1.419       .  A
C3014      C3018   1.519       .  S
C3015      C3020   1.414       .  A
C3015      C3024   1.399       .  A
C3016      F3032   1.382       .  S
C3016      F3033   1.383       .  S
C3016      F3034   1.385       .  S
C3018      F3029   1.382       .  S
C3018      F3030   1.385       .  S
C3018      F3031   1.383       .  S
C3020      C3021   1.403       .  A
C3020      C3025   1.520       .  S
C3021      C3022   1.406       .  A
C3021      H3026   1.083       .  S
C3022      C3023   1.423       .  A
C3023      C3024   1.407       .  A
C3023      C3027   1.517       .  S
C3024      H3028   1.083       .  S
C3025      F3038   1.385       .  S
C3025      F3039   1.382       .  S
C3025      F3040   1.382       .  S
C3027      F3035   1.385       .  S
C3027      F3036   1.383       .  S
C3027      F3037   1.380       .  S
C3041      C3042   1.400       .  A
C3041      C3046   1.401       .  A
C3041      H3051   1.084       .  S
C3042      C3047   1.474       .  S
C3042      C3043   1.414       .  A
C3043      C3044   1.404       .  A
C3043      C3048   1.519       .  S
C3044      C3045   1.404       .  A
C3044      H3049   1.083       .  S
C3045      C3046   1.417       .  A
C3046      C3050   1.519       .  S
C3047      C3052   1.411       .  A
C3047      C3056   1.397       .  A
C3048      F3064   1.381       .  S
C3048      F3065   1.382       .  S
C3048      F3066   1.385       .  S
C3050      F3061   1.383       .  S
C3050      F3062   1.385       .  S
C3050      F3063   1.379       .  S
C3052      C3053   1.404       .  A
C3052      C3057   1.520       .  S
C3053      C3054   1.411       .  A
C3053      H3058   1.082       .  S
C3054      C3055   1.428       .  A
C3055      C3056   1.401       .  A
C3055      C3059   1.523       .  S
C3056      H3060   1.083       .  S
C3057      F3070   1.385       .  S
C3057      F3071   1.382       .  S
C3057      F3072   1.381       .  S
C3059      F3067   1.385       .  S
C3059      F3068   1.381       .  S
C3059      F3069   1.383       .  S
C3073      C3074   1.403       .  A
C3073      C3078   1.411       .  A
C3073      H3083   1.083       .  S
C3074      C3079   1.488       .  S
C3074      C3075   1.413       .  A
C3075      C3076   1.407       .  A
C3075      C3080   1.520       .  S
C3076      C3077   1.409       .  A
C3076      H3081   1.083       .  S
C3077      C3078   1.422       .  A
C3078      C3082   1.519       .  S
C3079      C3084   1.416       .  A
C3079      C3088   1.404       .  A
C3080      F3096   1.382       .  S
C3080      F3097   1.382       .  S
C3080      F3098   1.384       .  S
C3082      F3093   1.385       .  S
C3082      F3094   1.384       .  S
C3082      F3095   1.382       .  S
C3084      C3085   1.407       .  A
C3084      C3089   1.520       .  S
C3085      C3086   1.403       .  A
C3085      H3090   1.083       .  S
C3086      C3087   1.418       .  A
C3087      C3088   1.410       .  A
C3087      C3091   1.518       .  S
C3088      H3092   1.083       .  S
C3089      F3102   1.385       .  S
C3089      F3103   1.382       .  S
C3089      F3104   1.382       .  S
C3091      F3099   1.384       .  S
C3091      F3100   1.381       .  S
C3091      F3101   1.384       .  S
C3105      C3106   1.397       .  A
C3105      C3110   1.403       .  A
C3105      H3115   1.084       .  S
C3106      C3111   1.474       .  S
C3106      C3107   1.410       .  A
C3107      C3108   1.404       .  A
C3107      C3112   1.518       .  S
C3108      C3109   1.408       .  A
C3108      H3113   1.079       .  S
C3109      C3110   1.424       .  A
C3110      C3114   1.517       .  S
C3111      C3116   1.413       .  A
C3111      C3120   1.401       .  A
C3112      F3128   1.382       .  S
C3112      F3129   1.382       .  S
C3112      F3130   1.383       .  S
C3114      F3125   1.385       .  S
C3114      F3126   1.381       .  S
C3114      F3127   1.383       .  S
C3116      C3117   1.398       .  A
C3116      C3121   1.523       .  S
C3117      C3118   1.402       .  A
C3117      H3122   1.077       .  S
C3118      C3119   1.420       .  A
C3119      C3120   1.409       .  A
C3119      C3123   1.518       .  S
C3120      H3124   1.083       .  S
C3121      F3134   1.383       .  S
C3121      F3135   1.382       .  S
C3121      F3136   1.382       .  S
C3123      F3131   1.383       .  S
C3123      F3132   1.384       .  S
C3123      F3133   1.385       .  S
C3137      C3138   1.401       .  A
C3137      C3142   1.407       .  A
C3137      H3147   1.083       .  S
C3138      C3143   1.479       .  S
C3138      C3139   1.414       .  A
C3139      C3140   1.403       .  A
C3139      C3144   1.521       .  S
C3140      C3141   1.404       .  A
C3140      H3145   1.084       .  S
C3141      C3142   1.417       .  A
C3142      C3146   1.517       .  S
C3143      C3148   1.411   1_556  A
C3143      C3152   1.398   1_556  A
C3144      F3160   1.382       .  S
C3144      F3161   1.383       .  S
C3144      F3162   1.385       .  S
C3146      F3157   1.384       .  S
C3146      F3158   1.382       .  S
C3146      F3159   1.382       .  S
C3148      C3149   1.402       .  A
C3148      C3153   1.522       .  S
C3149      C3150   1.411       .  A
C3149      H3154   1.080       .  S
C3150      C3151   1.426       .  A
C3151      C3152   1.409       .  A
C3151      C3155   1.516       .  S
C3152      H3156   1.083   1_554  S
C3153      F3166   1.385       .  S
C3153      F3167   1.382   1_554  S
C3153      F3168   1.383   1_554  S
C3155      F3163   1.385       .  S
C3155      F3164   1.383       .  S
C3155      F3165   1.380       .  S
C3169      C3170   1.404       .  A
C3169      C3174   1.411       .  A
C3169      H3179   1.083       .  S
C3170      C3175   1.484       .  S
C3170      C3171   1.414       .  A
C3171      C3172   1.403       .  A
C3171      C3176   1.520       .  S
C3172      C3173   1.402       .  A
C3172      H3177   1.081       .  S
C3173      C3174   1.417       .  A
C3174      C3178   1.517       .  S
C3175      C3180   1.416       .  A
C3175      C3184   1.403       .  A
C3176      F3192   1.383       .  S
C3176      F3193   1.381       .  S
C3176      F3194   1.385       .  S
C3178      F3189   1.383       .  S
C3178      F3190   1.385       .  S
C3178      F3191   1.382       .  S
C3180      C3181   1.405       .  A
C3180      C3185   1.520       .  S
C3181      C3182   1.402       .  A
C3181      H3186   1.084       .  S
C3182      C3183   1.417       .  A
C3183      C3184   1.410       .  A
C3183      C3187   1.517       .  S
C3184      H3188   1.083       .  S
C3185      F3198   1.384       .  S
C3185      F3199   1.383       .  S
C3185      F3200   1.382       .  S
C3187      F3195   1.384       .  S
C3187      F3196   1.383       .  S
C3187      F3197   1.383       .  S
C3201      C3202   1.400       .  A
C3201      C3206   1.407       .  A
C3201      H3211   1.083       .  S
C3202      C3207   1.480       .  S
C3202      C3203   1.411       .  A
C3203      C3204   1.405       .  A
C3203      C3208   1.520       .  S
C3204      C3205   1.410       .  A
C3204      H3209   1.082       .  S
C3205      C3206   1.424       .  A
C3206      C3210   1.520       .  S
C3207      C3212   1.414       .  A
C3207      C3216   1.400       .  A
C3208      F3224   1.382       .  S
C3208      F3225   1.382       .  S
C3208      F3226   1.384       .  S
C3210      F3221   1.384       .  S
C3210      F3222   1.383       .  S
C3210      F3223   1.383       .  S
C3212      C3213   1.405       .  A
C3212      C3217   1.520       .  S
C3213      C3214   1.407       .  A
C3213      H3218   1.083       .  S
C3214      C3215   1.419       .  A
C3215      C3216   1.405       .  A
C3215      C3219   1.515       .  S
C3216      H3220   1.083       .  S
C3217      F3230   1.384       .  S
C3217      F3231   1.382       .  S
C3217      F3232   1.382       .  S
C3219      F3227   1.384       .  S
C3219      F3228   1.382       .  S
C3219      F3229   1.383       .  S
C3233      C3234   1.401       .  A
C3233      C3238   1.411       .  A
C3233      H3243   1.083       .  S
C3234      C3239   1.479       .  S
C3234      C3235   1.414       .  A
C3235      C3236   1.398       .  A
C3235      C3240   1.523       .  S
C3236      C3237   1.402       .  A
C3236      H3241   1.077       .  S
C3237      C3238   1.421       .  A
C3238      C3242   1.514   1_556  S
C3239      C3244   1.416       .  A
C3239      C3248   1.400       .  A
C3240      F3256   1.382       .  S
C3240      F3257   1.382       .  S
C3240      F3258   1.384       .  S
C3242      F3253   1.384       .  S
C3242      F3254   1.380       .  S
C3242      F3255   1.380       .  S
C3244      C3245   1.403       .  A
C3244      C3249   1.520       .  S
C3245      C3246   1.402       .  A
C3245      H3250   1.084       .  S
C3246      C3247   1.419       .  A
C3247      C3248   1.406       .  A
C3247      C3251   1.517       .  S
C3248      H3252   1.083       .  S
C3249      F3262   1.385       .  S
C3249      F3263   1.383       .  S
C3249      F3264   1.383       .  S
C3251      F3259   1.385       .  S
C3251      F3260   1.382       .  S
C3251      F3261   1.383       .  S
C3265      C3266   1.398       .  A
C3265      C3270   1.407       .  A
C3265      H3275   1.083       .  S
C3266      C3271   1.484       .  S
C3266      C3267   1.413       .  A
C3267      C3268   1.406       .  A
C3267      C3272   1.520       .  S
C3268      C3269   1.409       .  A
C3268      H3273   1.082       .  S
C3269      C3270   1.427       .  A
C3270      C3274   1.521       .  S
C3271      C3276   1.416       .  A
C3271      C3280   1.400       .  A
C3272      F3288   1.382       .  S
C3272      F3289   1.382       .  S
C3272      F3290   1.384       .  S
C3274      F3285   1.385       .  S
C3274      F3286   1.380       .  S
C3274      F3287   1.382       .  S
C3276      C3277   1.409       .  A
C3276      C3281   1.519       .  S
C3277      C3278   1.405       .  A
C3277      H3282   1.083       .  S
C3278      C3279   1.417       .  A
C3279      C3280   1.404       .  A
C3279      C3283   1.515       .  S
C3280      H3284   1.083       .  S
C3281      F3294   1.384       .  S
C3281      F3295   1.382       .  S
C3281      F3296   1.382       .  S
C3283      F3291   1.385       .  S
C3283      F3292   1.381       .  S
C3283      F3293   1.383       .  S
C3297      C3298   1.403       .  A
C3297      C3302   1.410       .  A
C3297      H3307   1.083       .  S
C3298      C3303   1.484       .  S
C3298      C3299   1.414   1_554  A
C3299      C3300   1.403       .  A
C3299      C3304   1.520       .  S
C3300      C3301   1.402       .  A
C3300      H3305   1.083       .  S
C3301      C3302   1.419   1_556  A
C3302      C3306   1.519       .  S
C3303      C3308   1.415       .  A
C3303      C3312   1.400       .  A
C3304      F3320   1.383       .  S
C3304      F3321   1.382       .  S
C3304      F3322   1.385       .  S
C3306      F3317   1.385       .  S
C3306      F3318   1.383       .  S
C3306      F3319   1.383       .  S
C3308      C3309   1.408       .  A
C3308      C3313   1.520       .  S
C3309      C3310   1.405       .  A
C3309      H3314   1.083       .  S
C3310      C3311   1.420       .  A
C3311      C3312   1.408       .  A
C3311      C3315   1.514       .  S
C3312      H3316   1.083       .  S
C3313      F3326   1.384       .  S
C3313      F3327   1.383       .  S
C3313      F3328   1.382       .  S
C3315      F3323   1.382       .  S
C3315      F3324   1.383   1_554  S
C3315      F3325   1.384   1_554  S
C3329      C3330   1.401       .  A
C3329      C3334   1.404       .  A
C3329      H3339   1.083       .  S
C3330      C3335   1.482       .  S
C3330      C3331   1.415       .  A
C3331      C3332   1.406       .  A
C3331      C3336   1.518   1_556  S
C3332      C3333   1.403       .  A
C3332      H3337   1.083   1_556  S
C3333      C3334   1.415       .  A
C3334      C3338   1.516       .  S
C3335      C3340   1.416       .  A
C3335      C3344   1.400       .  A
C3336      F3352   1.382   1_554  S
C3336      F3353   1.382       .  S
C3336      F3354   1.385       .  S
C3338      F3349   1.382       .  S
C3338      F3350   1.384       .  S
C3338      F3351   1.382       .  S
C3340      C3341   1.406       .  A
C3340      C3345   1.520       .  S
C3341      C3342   1.405       .  A
C3341      H3346   1.083       .  S
C3342      C3343   1.421       .  A
C3343      C3344   1.406       .  A
C3343      C3347   1.517       .  S
C3344      H3348   1.083       .  S
C3345      F3358   1.384       .  S
C3345      F3359   1.382       .  S
C3345      F3360   1.382       .  S
C3347      F3355   1.382       .  S
C3347      F3356   1.381       .  S
C3347      F3357   1.385       .  S
C3361      C3362   1.402       .  A
C3361      C3366   1.407       .  A
C3361      H3371   1.084       .  S
C3362      C3367   1.476       .  S
C3362      C3363   1.411       .  A
C3363      C3364   1.399       .  A
C3363      C3368   1.518       .  S
C3364      C3365   1.409       .  A
C3364      H3369   1.084       .  S
C3365      C3366   1.425       .  A
C3366      C3370   1.521       .  S
C3367      C3372   1.412       .  A
C3367      C3376   1.401       .  A
C3368      F3384   1.382       .  S
C3368      F3385   1.382       .  S
C3368      F3386   1.383       .  S
C3370      F3381   1.385       .  S
C3370      F3382   1.383       .  S
C3370      F3383   1.384       .  S
C3372      C3373   1.406       .  A
C3372      C3377   1.516       .  S
C3373      C3374   1.406       .  A
C3373      H3378   1.083       .  S
C3374      C3375   1.416       .  A
C3375      C3376   1.401       .  A
C3375      C3379   1.517       .  S
C3376      H3380   1.084       .  S
C3377      F3390   1.384       .  S
C3377      F3391   1.382       .  S
C3377      F3392   1.383       .  S
C3379      F3387   1.382       .  S
C3379      F3388   1.384       .  S
C3379      F3389   1.385       .  S
C3393      C3394   1.401       .  A
C3393      C3398   1.405       .  A
C3393      H3403   1.083       .  S
C3394      C3399   1.484       .  S
C3394      C3395   1.417       .  A
C3395      C3396   1.407       .  A
C3395      C3400   1.518       .  S
C3396      C3397   1.400       .  A
C3396      H3401   1.084       .  S
C3397      C3398   1.415       .  A
C3398      C3402   1.517       .  S
C3399      C3404   1.414       .  A
C3399      C3408   1.402       .  A
C3400      F3416   1.382       .  S
C3400      F3417   1.382       .  S
C3400      F3418   1.384       .  S
C3402      F3413   1.384   1_556  S
C3402      F3414   1.382   1_556  S
C3402      F3415   1.382       .  S
C3404      C3405   1.403       .  A
C3404      C3409   1.521       .  S
C3405      C3406   1.407       .  A
C3405      H3410   1.083       .  S
C3406      C3407   1.422       .  A
C3407      C3408   1.409       .  A
C3407      C3411   1.520   1_655  S
C3408      H3412   1.083       .  S
C3409      F3422   1.385       .  S
C3409      F3423   1.382       .  S
C3409      F3424   1.382       .  S
C3411      F3419   1.385       .  S
C3411      F3420   1.384       .  S
C3411      F3421   1.383       .  S
C3425      C3426   1.405       .  A
C3425      C3430   1.410       .  A
C3425      H3435   1.083       .  S
C3426      C3431   1.482       .  S
C3426      C3427   1.416       .  A
C3427      C3428   1.398       .  A
C3427      C3432   1.521       .  S
C3428      C3429   1.401       .  A
C3428      H3433   1.082       .  S
C3429      C3430   1.415       .  A
C3430      C3434   1.517       .  S
C3431      C3436   1.416       .  A
C3431      C3440   1.403       .  A
C3432      F3448   1.381       .  S
C3432      F3449   1.382       .  S
C3432      F3450   1.385       .  S
C3434      F3445   1.385       .  S
C3434      F3446   1.382       .  S
C3434      F3447   1.384       .  S
C3436      C3437   1.404       .  A
C3436      C3441   1.521       .  S
C3437      C3438   1.403       .  A
C3437      H3442   1.083       .  S
C3438      C3439   1.415       .  A
C3439      C3440   1.406       .  A
C3439      C3443   1.518       .  S
C3440      H3444   1.083       .  S
C3441      F3454   1.385       .  S
C3441      F3455   1.382       .  S
C3441      F3456   1.383       .  S
C3443      F3451   1.384       .  S
C3443      F3452   1.383       .  S
C3443      F3453   1.382       .  S
C3457      C3458   1.402       .  A
C3457      C3462   1.408       .  A
C3457      H3467   1.083       .  S
C3458      C3463   1.486       .  S
C3458      C3459   1.416       .  A
C3459      C3460   1.408       .  A
C3459      C3464   1.520       .  S
C3460      C3461   1.406       .  A
C3460      H3465   1.083       .  S
C3461      C3462   1.421       .  A
C3462      C3466   1.519       .  S
C3463      C3468   1.414       .  A
C3463      C3472   1.396       .  A
C3464      F3480   1.382       .  S
C3464      F3481   1.381       .  S
C3464      F3482   1.385       .  S
C3466      F3477   1.385       .  S
C3466      F3478   1.383       .  S
C3466      F3479   1.384       .  S
C3468      C3469   1.413       .  A
C3468      C3473   1.518       .  S
C3469      C3470   1.411       .  A
C3469      H3474   1.082       .  S
C3470      C3471   1.426       .  A
C3471      C3472   1.404       .  A
C3471      C3475   1.515       .  S
C3472      H3476   1.084       .  S
C3473      F3486   1.384       .  S
C3473      F3487   1.383       .  S
C3473      F3488   1.382       .  S
C3475      F3483   1.385       .  S
C3475      F3484   1.384       .  S
C3475      F3485   1.383       .  S
C3489      C3490   1.399       .  A
C3489      C3494   1.409       .  A
C3489      H3499   1.083       .  S
C3490      C3495   1.480       .  S
C3490      C3491   1.413       .  A
C3491      C3492   1.403       .  A
C3491      C3496   1.520       .  S
C3492      C3493   1.406       .  A
C3492      H3497   1.080       .  S
C3493      C3494   1.427       .  A
C3494      C3498   1.519       .  S
C3495      C3500   1.414       .  A
C3495      C3504   1.394       .  A
C3496      F3512   1.383       .  S
C3496      F3513   1.382       .  S
C3496      F3514   1.384       .  S
C3498      F3509   1.385       .  S
C3498      F3510   1.381       .  S
C3498      F3511   1.383       .  S
C3500      C3501   1.410       .  A
C3500      C3505   1.515       .  S
C3501      C3502   1.409       .  A
C3501      H3506   1.084       .  S
C3502      C3503   1.430       .  A
C3503      C3504   1.398       .  A
C3503      C3507   1.522       .  S
C3504      H3508   1.084       .  S
C3505      F3518   1.383       .  S
C3505      F3519   1.383       .  S
C3505      F3520   1.382       .  S
C3507      F3515   1.376       .  S
C3507      F3516   1.383       .  S
C3507      F3517   1.385       .  S
C3521      C3522   1.401       .  A
C3521      C3526   1.409       .  A
C3521      H3531   1.083       .  S
C3522      C3527   1.491       .  S
C3522      C3523   1.415       .  A
C3523      C3524   1.408       .  A
C3523      C3528   1.520       .  S
C3524      C3525   1.410       .  A
C3524      H3529   1.082       .  S
C3525      C3526   1.426       .  A
C3526      C3530   1.521       .  S
C3527      C3532   1.416       .  A
C3527      C3536   1.406       .  A
C3528      F3544   1.382       .  S
C3528      F3545   1.383       .  S
C3528      F3546   1.385       .  S
C3530      F3541   1.384       .  S
C3530      F3542   1.385       .  S
C3530      F3543   1.382       .  S
C3532      C3533   1.404       .  A
C3532      C3537   1.521       .  S
C3533      C3534   1.405       .  A
C3533      H3538   1.080       .  S
C3534      C3535   1.420       .  A
C3535      C3536   1.412       .  A
C3535      C3539   1.520       .  S
C3536      H3540   1.083       .  S
C3537      F3550   1.385       .  S
C3537      F3551   1.381       .  S
C3537      F3552   1.383       .  S
C3539      F3547   1.383       .  S
C3539      F3548   1.383       .  S
C3539      F3549   1.385       .  S
C3553      C3554   1.400       .  A
C3553      C3558   1.406       .  A
C3553      H3563   1.083       .  S
C3554      C3559   1.477       .  S
C3554      C3555   1.410       .  A
C3555      C3556   1.402       .  A
C3555      C3560   1.520       .  S
C3556      C3557   1.410       .  A
C3556      H3561   1.082       .  S
C3557      C3558   1.425       .  A
C3558      C3562   1.521       .  S
C3559      C3564   1.414       .  A
C3559      C3568   1.402       .  A
C3560      F3576   1.382       .  S
C3560      F3577   1.382       .  S
C3560      F3578   1.385       .  S
C3562      F3573   1.385       .  S
C3562      F3574   1.383       .  S
C3562      F3575   1.384       .  S
C3564      C3565   1.403       .  A
C3564      C3569   1.521       .  S
C3565      C3566   1.403       .  A
C3565      H3570   1.084       .  S
C3566      C3567   1.412       .  A
C3567      C3568   1.405       .  A
C3567      C3571   1.514       .  S
C3568      H3572   1.083       .  S
C3569      F3582   1.384       .  S
C3569      F3583   1.382       .  S
C3569      F3584   1.382       .  S
C3571      F3579   1.382       .  S
C3571      F3580   1.384       .  S
C3571      F3581   1.384       .  S
C3585      C3586   1.400       .  A
C3585      C3590   1.404       .  A
C3585      H3595   1.084       .  S
C3586      C3591   1.481       .  S
C3586      C3587   1.417       .  A
C3587      C3588   1.407       .  A
C3587      C3592   1.519       .  S
C3588      C3589   1.402       .  A
C3588      H3593   1.083       .  S
C3589      C3590   1.418       .  A
C3590      C3594   1.519       .  S
C3591      C3596   1.415       .  A
C3591      C3600   1.399       .  A
C3592      F3608   1.382       .  S
C3592      F3609   1.382       .  S
C3592      F3610   1.385       .  S
C3594      F3605   1.385       .  S
C3594      F3606   1.383       .  S
C3594      F3607   1.383       .  S
C3596      C3597   1.410       .  A
C3596      C3601   1.518       .  S
C3597      C3598   1.405       .  A
C3597      H3602   1.083       .  S
C3598      C3599   1.419       .  A
C3599      C3600   1.402       .  A
C3599      C3603   1.517       .  S
C3600      H3604   1.084       .  S
C3601      F3614   1.385       .  S
C3601      F3615   1.382       .  S
C3601      F3616   1.382       .  S
C3603      F3611   1.385       .  S
C3603      F3612   1.383       .  S
C3603      F3613   1.381       .  S
C3617      C3618   1.399       .  A
C3617      C3622   1.408       .  A
C3617      H3627   1.083       .  S
C3618      C3623   1.484       .  S
C3618      C3619   1.416       .  A
C3619      C3620   1.404       .  A
C3619      C3624   1.519       .  S
C3620      C3621   1.401       .  A
C3620      H3625   1.078       .  S
C3621      C3622   1.424       .  A
C3622      C3626   1.520       .  S
C3623      C3628   1.418       .  A
C3623      C3632   1.404       .  A
C3624      F3640   1.382       .  S
C3624      F3641   1.380       .  S
C3624      F3642   1.384       .  S
C3626      F3637   1.384       .  S
C3626      F3638   1.382       .  S
C3626      F3639   1.383       .  S
C3628      C3629   1.404       .  A
C3628      C3633   1.519       .  S
C3629      C3630   1.399       .  A
C3629      H3634   1.084       .  S
C3630      C3631   1.411       .  A
C3631      C3632   1.407       .  A
C3631      C3635   1.516       .  S
C3632      H3636   1.083       .  S
C3633      F3646   1.384       .  S
C3633      F3647   1.382       .  S
C3633      F3648   1.383       .  S
C3635      F3643   1.384       .  S
C3635      F3644   1.383       .  S
C3635      F3645   1.383       .  S
C3649      C3650   1.400       .  A
C3649      C3654   1.408       .  A
C3649      H3659   1.083       .  S
C3650      C3655   1.488       .  S
C3650      C3651   1.414       .  A
C3651      C3652   1.409       .  A
C3651      C3656   1.519       .  S
C3652      C3653   1.409       .  A
C3652      H3657   1.083       .  S
C3653      C3654   1.428       .  A
C3654      C3658   1.523       .  S
C3655      C3660   1.417       .  A
C3655      C3664   1.400       .  A
C3656      F3672   1.382       .  S
C3656      F3673   1.382       .  S
C3656      F3674   1.384       .  S
C3658      F3669   1.385       .  S
C3658      F3670   1.383       .  S
C3658      F3671   1.384       .  S
C3660      C3661   1.411       .  A
C3660      C3665   1.519       .  S
C3661      C3662   1.405       .  A
C3661      H3666   1.083       .  S
C3662      C3663   1.423       .  A
C3663      C3664   1.405       .  A
C3663      C3667   1.521       .  S
C3664      H3668   1.083       .  S
C3665      F3678   1.384       .  S
C3665      F3679   1.382       .  S
C3665      F3680   1.382       .  S
C3667      F3675   1.382       .  S
C3667      F3676   1.383       .  S
C3667      F3677   1.385       .  S
C3681      C3682   1.400       .  A
C3681      C3686   1.401       .  A
C3681      H3691   1.085       .  S
C3682      C3687   1.481       .  S
C3682      C3683   1.414       .  A
C3683      C3684   1.409       .  A
C3683      C3688   1.517       .  S
C3684      C3685   1.405       .  A
C3684      H3689   1.084       .  S
C3685      C3686   1.412       .  A
C3686      C3690   1.512       .  S
C3687      C3692   1.417       .  A
C3687      C3696   1.403       .  A
C3688      F3704   1.383       .  S
C3688      F3705   1.383       .  S
C3688      F3706   1.384       .  S
C3690      F3701   1.382       .  S
C3690      F3702   1.383       .  S
C3690      F3703   1.384       .  S
C3692      C3693   1.400       .  A
C3692      C3697   1.524       .  S
C3693      C3694   1.405       .  A
C3693      H3698   1.083       .  S
C3694      C3695   1.419       .  A
C3695      C3696   1.411       .  A
C3695      C3699   1.516       .  S
C3696      H3700   1.083       .  S
C3697      F3710   1.385       .  S
C3697      F3711   1.381       .  S
C3697      F3712   1.382       .  S
C3699      F3707   1.382       .  S
C3699      F3708   1.383       .  S
C3699      F3709   1.384       .  S
C3713      C3714   1.400       .  A
C3713      C3718   1.407       .  A
C3713      H3723   1.083       .  S
C3714      C3719   1.483       .  S
C3714      C3715   1.416       .  A
C3715      C3716   1.407       .  A
C3715      C3720   1.520       .  S
C3716      C3717   1.405       .  A
C3716      H3721   1.083       .  S
C3717      C3718   1.420       .  A
C3718      C3722   1.518       .  S
C3719      C3724   1.411       .  A
C3719      C3728   1.398       .  A
C3720      F3736   1.382       .  S
C3720      F3737   1.382       .  S
C3720      F3738   1.384       .  S
C3722      F3733   1.380   1_655  S
C3722      F3734   1.385       .  S
C3722      F3735   1.381       .  S
C3724      C3725   1.406       .  A
C3724      C3729   1.520       .  S
C3725      C3726   1.412       .  A
C3725      H3730   1.082       .  S
C3726      C3727   1.430       .  A
C3727      C3728   1.408       .  A
C3727      C3731   1.522       .  S
C3728      H3732   1.083       .  S
C3729      F3742   1.385       .  S
C3729      F3743   1.382       .  S
C3729      F3744   1.382       .  S
C3731      F3739   1.385       .  S
C3731      F3740   1.383       .  S
C3731      F3741   1.383       .  S
C3745      C3746   1.399       .  A
C3745      C3750   1.403       .  A
C3745      H3755   1.083       .  S
C3746      C3751   1.487       .  S
C3746      C3747   1.418       .  A
C3747      C3748   1.413       .  A
C3747      C3752   1.518       .  S
C3748      C3749   1.404       .  A
C3748      H3753   1.083       .  S
C3749      C3750   1.417       .  A
C3750      C3754   1.516       .  S
C3751      C3756   1.416       .  A
C3751      C3760   1.404       .  A
C3752      F3768   1.383       .  S
C3752      F3769   1.382       .  S
C3752      F3770   1.385       .  S
C3754      F3765   1.385       .  S
C3754      F3766   1.382       .  S
C3754      F3767   1.379       .  S
C3756      C3757   1.405       .  A
C3756      C3761   1.520       .  S
C3757      C3758   1.404       .  A
C3757      H3762   1.083       .  S
C3758      C3759   1.419       .  A
C3759      C3760   1.411       .  A
C3759      C3763   1.518       .  S
C3760      H3764   1.083       .  S
C3761      F3774   1.385       .  S
C3761      F3775   1.382       .  S
C3761      F3776   1.382       .  S
C3763      F3771   1.383       .  S
C3763      F3772   1.382       .  S
C3763      F3773   1.384       .  S
