geometry optimzed in LAMMPS
_audit_creation_date              2020-12-01 
_audit_creation_method            'lammps2cif' 
_symmetry_space_group_name_H-M    'P1' 
_symmetry_Int_Tables_number       1 
_symmetry_cell_setting            triclinic 
loop_ 
_symmetry_equiv_pos_as_xyz 
  x,y,z 
_cell_length_a                    48.6525815 
_cell_length_b                    48.54231413749686 
_cell_length_c                    30.050184250391077 
_cell_angle_alpha                 89.8941644540585 
_cell_angle_beta                  90.10909469870192 
_cell_angle_gamma                 90.02118276533783 
loop_ 
_atom_site_label 
_atom_site_type_symbol 
_atom_site_fract_x 
_atom_site_fract_y 
_atom_site_fract_z 
_atom_site_charge 
O1          O  0.69480871  0.49741512  0.78012611    -0.84700
O2          O  0.72903546  0.45982162  0.74111496    -0.81700
C3          C  0.73464619  0.43707258  0.72290552     0.98800
O4          O  0.71952221  0.42777756  0.69207875    -0.81700
O5          O  0.67044178  0.40948727  0.72715840    -0.84400
C6          C  0.64655070  0.40982739  0.74325919     1.03300
O7          O  0.63268898  0.43169577  0.74198840    -0.77200
O8          O  0.66366771  0.46617900  0.79624800    -0.77300
C9          C  0.68270793  0.48225285  0.80844269     1.03300
O10         O  0.68121446  0.51996191  0.69284686    -0.84700
O11         O  0.71976241  0.48368931  0.65499973    -0.81700
C12         C  0.70964106  0.47265470  0.62054785     0.98800
O13         O  0.68960206  0.45633978  0.62345221    -0.81800
O14         O  0.64133124  0.43605007  0.65433163    -0.84400
C15         C  0.62384399  0.45540486  0.65300098     1.03300
O16         O  0.62457767  0.47498134  0.68078744    -0.77200
O17         O  0.64877558  0.51152385  0.74105874    -0.77300
C18         C  0.66043700  0.52794677  0.71456323     1.03300
Cr19       Cr  0.70397324  0.48846652  0.71646327     1.93700
Cr20       Cr  0.68002101  0.43477638  0.67698538     1.93200
Cr21       Cr  0.64498247  0.47073197  0.73793678     1.39100
O22         O  0.67646059  0.46467699  0.70998599    -1.22400
O23         O  0.73339450  0.45580348  0.20660053    -0.84700
O24         O  0.75967543  0.47801569  0.27736792    -0.81700
C25         C  0.77889421  0.48112125  0.30494387     0.98800
O26         O  0.80337940  0.48508180  0.29176095    -0.81700
O27         O  0.82145483  0.43390567  0.26497442    -0.84400
C28         C  0.82406499  0.41238590  0.24202465     1.03300
O29         O  0.81543176  0.41204619  0.20231778    -0.77200
O30         O  0.75934660  0.41888066  0.20898149    -0.77300
C31         C  0.73620159  0.43011060  0.21382211     1.03300
O32         O  0.76088344  0.49575480  0.14921104    -0.84700
O33         O  0.78349449  0.52135613  0.22367652    -0.81700
C34         C  0.80821856  0.52639595  0.21318853     0.98800
O35         O  0.82520851  0.50716261  0.20864394    -0.81800
O36         O  0.84562874  0.45705172  0.18568283    -0.84400
C37         C  0.84017941  0.45382739  0.14464032     1.03300
O38         O  0.81564738  0.45136077  0.13174892    -0.77200
O39         O  0.75917834  0.45221667  0.13072826    -0.77300
C40         C  0.75512757  0.47725030  0.12135175     1.03300
Cr41       Cr  0.76156977  0.48629711  0.21364410     1.93700
Cr42       Cr  0.82147197  0.47052080  0.23576381     1.93200
Cr43       Cr  0.78758129  0.43576044  0.17118723     1.39100
O44         O  0.79025961  0.46425896  0.20716179    -1.22400
O45         O  0.98181873  0.21880904  0.29205387    -0.84700
O46         O  0.95686184  0.24798040  0.35783425    -0.81700
C47         C  0.93136057  0.24614997  0.34866687     0.98800
O48         O  0.91884620  0.22367102  0.35466357    -0.81700
O49         O  0.90916772  0.16792160  0.36516427    -0.84400
C50         C  0.91011589  0.15796287  0.32646053     1.03300
O51         O  0.93214104  0.15941657  0.30455620    -0.77200
O52         O  0.98519944  0.17420567  0.28128843    -0.77300
C53         C  0.98523551  0.19866926  0.26626173     1.03300
O54         O  0.02012656  0.19449204  0.35332414    -0.84700
O55         O  0.99267439  0.22022219  0.42265818    -0.81700
C56         C  0.97342628  0.22706272  0.44839451     0.98800
O57         O  0.94885458  0.22418248  0.43580444    -0.81800
O58         O  0.94535108  0.16723575  0.43895007    -0.84400
C59         C  0.94696094  0.14227337  0.42735722     1.03300
O60         O  0.95163216  0.13606891  0.38703138    -0.77200
O61         O  0.00331733  0.15340760  0.36718149    -0.77300
C62         C  0.02338598  0.16962796  0.36488749     1.03300
Cr63       Cr  0.98612355  0.21820359  0.35709333     1.93700
Cr64       Cr  0.93287442  0.19546290  0.39601575     1.93200
Cr65       Cr  0.96783731  0.15840588  0.33683078     1.39100
O66         O  0.96237938  0.19064954  0.36288921    -1.22400
O67         O  0.94896583  0.23950915  0.86147524    -0.84700
O68         O  0.97369819  0.26789845  0.79440358    -0.81700
C69         C  0.97586326  0.28772800  0.76763050     0.98800
O70         O  0.97404226  0.31237494  0.78122801    -0.81700
O71         O  0.92085661  0.32531359  0.80688684    -0.84400
C72         C  0.89931880  0.32710471  0.83000117     1.03300
O73         O  0.89974712  0.31866739  0.86978624    -0.77200
O74         O  0.91041721  0.26320794  0.86094838    -0.77300
C75         C  0.92314447  0.24099736  0.85431748     1.03300
O76         O  0.98525768  0.26831225  0.92432855    -0.84700
O77         O  0.01158757  0.29442882  0.85513741    -0.81700
C78         C  0.01414966  0.31987289  0.86401238     0.98800
O79         O  0.99339133  0.33535046  0.86423948    -0.81800
O80         O  0.94181216  0.35094340  0.88712658    -0.84400
C81         C  0.93912964  0.34526138  0.92818845     1.03300
O82         O  0.93821604  0.32049397  0.94103437    -0.77200
O83         O  0.94197605  0.26333436  0.94043498    -0.77300
C84         C  0.96693905  0.26033659  0.95082372     1.03300
Cr85       Cr  0.97800813  0.26967407  0.85938539     1.93700
Cr86       Cr  0.95733263  0.32839042  0.83680449     1.93200
Cr87       Cr  0.92490487  0.29175638  0.90029408     1.39100
O88         O  0.95357994  0.29659126  0.86501585    -1.22400
O89         O  0.74625906  0.02388896  0.21358080    -0.84700
O90         O  0.71698484  0.99942592  0.27946084    -0.81700
C91         C  0.69692992  0.99538354  0.30493686     0.98800
O92         O  0.67249044  0.99570153  0.28993777    -0.81700
O93         O  0.65878764  0.04921338  0.26850672    -0.84400
C94         C  0.65759793  0.07175849  0.24780910     1.03300
O95         O  0.66718515  0.07327713  0.20872993    -0.77200
O96         O  0.72271024  0.06237293  0.21802913    -0.77300
C97         C  0.74490286  0.04933589  0.22334721     1.03300
O98         O  0.71780029  0.98882211  0.14974264    -0.84700
O99         O  0.69167027  0.96148648  0.21866057    -0.81700
C100        C  0.66701374  0.95889857  0.20577273     0.98800
O101        O  0.65148864  0.97946816  0.20303745    -0.81800
O102        O  0.63499628  0.03143884  0.18508790    -0.84400
C103        C  0.64131010  0.03550227  0.14457544     1.03300
O104        O  0.66619129  0.03753440  0.13326217    -0.77200
O105        O  0.72289957  0.03269597  0.13591571    -0.77300
C106        C  0.72589806  0.00781806  0.12439155     1.03300
Cr107      Cr  0.71607757  0.99517218  0.21477552     1.93700
Cr108      Cr  0.65696241  0.01420823  0.23490827     1.93200
Cr109      Cr  0.69440430  0.04925888  0.17645926     1.39100
O110        O  0.68912987  0.01949147  0.20908667    -1.22400
O111        O  0.76388747  0.99880886  0.78028800    -0.84700
O112        O  0.73251353  0.02152082  0.71418225    -0.81700
C113        C  0.73220314  0.04725316  0.72265044     0.98800
O114        O  0.75387183  0.06131293  0.71801958    -0.81700
O115        O  0.80870996  0.07543121  0.70809808    -0.84400
C116        C  0.81824782  0.07478180  0.74712522     1.03300
O117        O  0.81859573  0.05237418  0.76820757    -0.77200
O118        O  0.80852251  0.99848854  0.79097729    -0.77300
C119        C  0.78424673  0.99706170  0.80616851     1.03300
O120        O  0.79115586  0.96220700  0.71901995    -0.84700
O121        O  0.76307087  0.98811899  0.64950208    -0.81700
C122        C  0.75522487  0.00710937  0.62368813     0.98800
O123        O  0.75589312  0.03170223  0.63694582    -0.81800
O124        O  0.81192745  0.03984286  0.63354083    -0.84400
C125        C  0.83695133  0.03930577  0.64475266     1.03300
O126        O  0.84358404  0.03531574  0.68519763    -0.77200
O127        O  0.83043147  0.98246643  0.70534886    -0.77300
C128        C  0.81637019  0.96085482  0.70841164     1.03300
Cr129      Cr  0.76464414  0.99450945  0.71515957     1.93700
Cr130      Cr  0.78309545  0.04977612  0.67678627     1.93200
Cr131      Cr  0.82267063  0.01727702  0.73553735     1.39100
O132        O  0.79018855  0.02037708  0.70946011    -1.22400
O133        O  0.51971603  0.24328747  0.86432841    -0.84700
O134        O  0.49273543  0.21514933  0.79892831    -0.81700
C135        C  0.48885690  0.19518338  0.77288217     0.98800
O136        O  0.48804033  0.17063680  0.78758793    -0.81700
O137        O  0.54104857  0.15367203  0.80637160    -0.84400
C138        C  0.56390364  0.15250232  0.82615471     1.03300
O139        O  0.56615449  0.16255788  0.86470720    -0.77200
O140        O  0.55719107  0.21861408  0.85648424    -0.77300
C141        C  0.54490570  0.24142001  0.85344156     1.03300
O142        O  0.48544710  0.21557732  0.93013190    -0.84700
O143        O  0.45537566  0.19106137  0.86155716    -0.81700
C144        C  0.45183981  0.16620666  0.87294365     0.98800
O145        O  0.47173519  0.14977298  0.87473395    -0.81800
O146        O  0.52357576  0.13097424  0.89046570    -0.84400
C147        C  0.52976443  0.13730742  0.93022502     1.03300
O148        O  0.53222848  0.16223635  0.94129778    -0.77200
O149        O  0.52968087  0.21878660  0.94039988    -0.77300
C150        C  0.50550667  0.22201535  0.95474104     1.03300
Cr151      Cr  0.48999001  0.21405072  0.86413219     1.93700
Cr152      Cr  0.50638855  0.15392195  0.84167054     1.93200
Cr153      Cr  0.54395542  0.19026064  0.89818799     1.39100
O154        O  0.51338868  0.18604773  0.86745536    -1.22400
O155        O  0.50052234  0.26479924  0.30074766    -0.84700
O156        O  0.52485771  0.23594847  0.36808706    -0.81700
C157        C  0.55052455  0.23660127  0.35966301     0.98800
O158        O  0.56372770  0.25884254  0.36358615    -0.81700
O159        O  0.57541824  0.31441312  0.36875566    -0.84400
C160        C  0.57419208  0.32259223  0.32881893     1.03300
O161        O  0.55166113  0.32158452  0.30832439    -0.77200
O162        O  0.49814335  0.30920605  0.28769231    -0.77300
C163        C  0.49756674  0.28449773  0.27391186     1.03300
O164        O  0.46337557  0.29232914  0.36144962    -0.84700
O165        O  0.49053247  0.26629997  0.43088114    -0.81700
C166        C  0.50938833  0.25872213  0.45691793     0.98800
O167        O  0.53420927  0.26123881  0.44523209    -0.81800
O168        O  0.53977135  0.31796750  0.44381601    -0.84400
C169        C  0.53808388  0.34273543  0.43129424     1.03300
O170        O  0.53459407  0.34834566  0.39030991    -0.77200
O171        O  0.48250240  0.33255086  0.37299131    -0.77300
C172        C  0.46146283  0.31759708  0.37197717     1.03300
Cr173      Cr  0.49660617  0.26692897  0.36567165     1.93700
Cr174      Cr  0.55102656  0.28848761  0.40279333     1.93200
Cr175      Cr  0.51695413  0.32536546  0.34179442     1.39100
O176        O  0.52142810  0.29356209  0.36975247    -1.22400
O177        O  0.24045166  0.95917641  0.37028240    -0.84700
O178        O  0.21037528  0.98298952  0.30459661    -0.81700
C179        C  0.19046292  0.98448994  0.27794150     0.98800
O180        O  0.16594716  0.98271896  0.29210655    -0.81700
O181        O  0.15467515  0.92919690  0.31680071    -0.84400
C182        C  0.15405091  0.90710957  0.33877662     1.03300
O183        O  0.16310247  0.90690853  0.37822431    -0.77200
O184        O  0.21804074  0.91978850  0.36859400    -0.77300
C185        C  0.23987330  0.93333310  0.36289386     1.03300
O186        O  0.21129354  0.99370811  0.43471765    -0.84700
O187        O  0.18347810  0.01979022  0.36616340    -0.81700
C188        C  0.15816059  0.02147863  0.37589334     0.98800
O189        O  0.14341114  0.00024903  0.37679449    -0.81800
O190        O  0.12945962  0.94793270  0.39892489    -0.84400
C191        C  0.13588047  0.94458101  0.43967885     1.03300
O192        O  0.16080722  0.94412553  0.45131068    -0.77200
O193        O  0.21746712  0.95014986  0.44904248    -0.77300
C194        C  0.22003484  0.97506874  0.46025182     1.03300
Cr195      Cr  0.20927807  0.98705653  0.36949094     1.93700
Cr196      Cr  0.15099838  0.96491322  0.34809766     1.93200
Cr197      Cr  0.18938797  0.93257120  0.40911360     1.39100
O198        O  0.18320233  0.96169730  0.37521029    -1.22400
O199        O  0.26115940  0.98159089  0.80341353    -0.84700
O200        O  0.23139423  0.95650499  0.86923983    -0.81700
C201        C  0.23189245  0.93056323  0.86220912     0.98800
O202        O  0.25393709  0.91715676  0.86713391    -0.81700
O203        O  0.30941511  0.90517498  0.87552636    -0.84400
C204        C  0.31758804  0.90567339  0.83560332     1.03300
O205        O  0.31614483  0.92782306  0.81397597    -0.77200
O206        O  0.30561727  0.98178140  0.79154669    -0.77300
C207        C  0.28122143  0.98386442  0.77719362     1.03300
O208        O  0.28843649  0.01766514  0.86622264    -0.84700
O209        O  0.26082212  0.99067249  0.93441343    -0.81700
C210        C  0.25279619  0.97171029  0.95998176     0.98800
O211        O  0.25496281  0.94698161  0.94771804    -0.81800
O212        O  0.31152164  0.94255216  0.94892926    -0.84400
C213        C  0.33628397  0.94453751  0.93701827     1.03300
O214        O  0.34235861  0.94587695  0.89599871    -0.77200
O215        O  0.32840184  0.99772667  0.87607411    -0.77300
C216        C  0.31392083  0.01909124  0.87541247     1.03300
Cr217      Cr  0.26244455  0.98478978  0.86876861     1.93700
Cr218      Cr  0.28292708  0.93018633  0.90719009     1.93200
Cr219      Cr  0.32050541  0.96304395  0.84623633     1.39100
O220        O  0.28852263  0.95950075  0.87354806    -1.22400
O221        O  0.45099256  0.73863611  0.74220879    -0.84700
O222        O  0.49064728  0.70645124  0.78046079    -0.81700
C223        C  0.47644517  0.69436165  0.80995614     0.98800
O224        O  0.46072939  0.67476766  0.79907526    -0.81700
O225        O  0.42489673  0.64341714  0.74861707    -0.84400
C226        C  0.40260088  0.65673871  0.74817080     1.03300
O227        O  0.40155571  0.67989640  0.72912248    -0.77200
O228        O  0.41956158  0.72890004  0.69221964    -0.77300
C229        C  0.42831563  0.74391596  0.72359062     1.03300
O230        O  0.47393829  0.72968393  0.65555580    -0.84700
O231        O  0.51107834  0.69262978  0.69232858    -0.81700
C232        C  0.51994586  0.67165108  0.71264233     0.98800
O233        O  0.50501322  0.65958796  0.74098559    -0.81800
O234        O  0.46721989  0.63403682  0.68522143    -0.84400
C235        C  0.44775693  0.63297906  0.65734329     1.03300
O236        O  0.42810578  0.65005661  0.65855823    -0.77200
O237        O  0.44817468  0.69791192  0.62529797    -0.77300
C238        C  0.46375549  0.71844890  0.62136746     1.03300
Cr239      Cr  0.47993533  0.71460191  0.71708913     1.93700
Cr240      Cr  0.46397395  0.65541392  0.74136308     1.93200
Cr241      Cr  0.42678067  0.68907468  0.67908167     1.39100
O242        O  0.45682452  0.68641985  0.71227422    -1.22400
O243        O  0.48153347  0.76961940  0.28027269    -0.84700
O244        O  0.45558167  0.74157788  0.21432034    -0.81700
C245        C  0.43024163  0.74162675  0.22527376     0.98800
O246        O  0.41633207  0.76349389  0.22235580    -0.81700
O247        O  0.40273318  0.81871598  0.21776938    -0.84400
C248        C  0.40396476  0.82619584  0.25787129     1.03300
O249        O  0.42645030  0.82455909  0.27832772    -0.77200
O250        O  0.48041868  0.81352784  0.29750734    -0.77300
C251        C  0.48296681  0.78852574  0.30882023     1.03300
O252        O  0.51554886  0.79943467  0.21816860    -0.84700
O253        O  0.48733072  0.77395178  0.14915890    -0.81700
C254        C  0.46761352  0.76686126  0.12444788     0.98800
O255        O  0.44351701  0.76752870  0.13965083    -0.81800
O256        O  0.43763846  0.82392746  0.14295701    -0.84400
C257        C  0.43925703  0.84843660  0.15665961     1.03300
O258        O  0.44270150  0.85348672  0.19776902    -0.77200
O259        O  0.49531208  0.83973352  0.21495833    -0.77300
C260        C  0.51668026  0.82532330  0.21244154     1.03300
Cr261      Cr  0.48317146  0.77320061  0.21528116     1.93700
Cr262      Cr  0.42737763  0.79377987  0.18318148     1.93200
Cr263      Cr  0.46102869  0.83025460  0.24494539     1.39100
O264        O  0.45745825  0.79910827  0.21482629    -1.22400
O265        O  0.99781252  0.71272237  0.28869944    -0.84700
O266        O  0.02304433  0.74072414  0.22220227    -0.81700
C267        C  0.04845489  0.73977917  0.23258134     0.98800
O268        O  0.06158946  0.71751090  0.22875905    -0.81700
O269        O  0.07313267  0.66199231  0.22348448    -0.84400
C270        C  0.07178335  0.65404627  0.26350179     1.03300
O271        O  0.04902023  0.65461041  0.28328049    -0.77200
O272        O  0.99567743  0.66838187  0.30298572    -0.77300
C273        C  0.99491166  0.69326964  0.31595726     1.03300
O274        O  0.96086143  0.68529733  0.22820782    -0.84700
O275        O  0.98892234  0.71003648  0.15833971    -0.81700
C276        C  0.00818730  0.71699643  0.13270931     0.98800
O277        O  0.03273111  0.71507775  0.14610818    -0.81800
O278        O  0.03772287  0.65869483  0.14795718    -0.84400
C279        C  0.03583475  0.63390036  0.16019353     1.03300
O280        O  0.03148036  0.62811655  0.20091126    -0.77200
O281        O  0.97915523  0.64453763  0.21856357    -0.77300
C282        C  0.95832550  0.65985292  0.21943678     1.03300
Cr283      Cr  0.99444660  0.71006092  0.22392486     1.93700
Cr284      Cr  0.04897991  0.68796458  0.18910983     1.93200
Cr285      Cr  0.01409862  0.65143940  0.24937512     1.39100
O286        O  0.01904660  0.68312709  0.22120939    -1.22400
O287        O  0.01845839  0.73266496  0.72306350    -0.84700
O288        O  0.99361971  0.76102968  0.78965894    -0.81700
C289        C  0.99038199  0.78067778  0.81638599     0.98800
O290        O  0.99085346  0.80549403  0.80276809    -0.81700
O291        O  0.04386932  0.82033380  0.78204471    -0.84400
C292        C  0.06650592  0.82123372  0.76189663     1.03300
O293        O  0.06823419  0.81173694  0.72292334    -0.77200
O294        O  0.05697679  0.75580478  0.73021807    -0.77300
C295        C  0.04380487  0.73345883  0.73347421     1.03300
O296        O  0.98434767  0.76249948  0.65915167    -0.84700
O297        O  0.95624287  0.78729531  0.72938633    -0.81700
C298        C  0.95332475  0.81246060  0.71938699     0.98800
O299        O  0.97373608  0.82823487  0.71725093    -0.81800
O300        O  0.02594291  0.84503648  0.69916364    -0.84400
C301        C  0.03101353  0.83896801  0.65885367     1.03300
O302        O  0.03328461  0.81409968  0.64722689    -0.77200
O303        O  0.02831016  0.75761827  0.64760921    -0.77300
C304        C  0.00383156  0.75531975  0.63408450     1.03300
Cr305      Cr  0.98994330  0.76307131  0.72483518     1.93700
Cr306      Cr  0.00886244  0.82218427  0.74831593     1.93200
Cr307      Cr  0.04438421  0.78517609  0.68959705     1.39100
O308        O  0.01431043  0.79021456  0.72131553    -1.22400
O309        O  0.23963150  0.52700152  0.37507678    -0.84700
O310        O  0.26626694  0.50314673  0.30490674    -0.81700
C311        C  0.28537192  0.49934061  0.27734450     0.98800
O312        O  0.31022253  0.49860584  0.29046465    -0.81700
O313        O  0.32626619  0.55121231  0.31421495    -0.84400
C314        C  0.32878390  0.57312146  0.33620472     1.03300
O315        O  0.32028711  0.57393392  0.37593551    -0.77200
O316        O  0.26387352  0.56512966  0.37163942    -0.77300
C317        C  0.24103123  0.55289596  0.36855899     1.03300
O318        O  0.26863596  0.48961812  0.43486040    -0.84700
O319        O  0.29228463  0.46309946  0.36211402    -0.81700
C320        C  0.31743883  0.45931430  0.37139706     0.98800
O321        O  0.33377507  0.47926469  0.37392214    -0.81800
O322        O  0.35235054  0.53054834  0.39422721    -0.84400
C323        C  0.34728192  0.53407707  0.43531123     1.03300
O324        O  0.32278115  0.53615916  0.44850861    -0.77200
O325        O  0.26630064  0.53332279  0.45108697    -0.77300
C326        C  0.26231930  0.50847150  0.46182007     1.03300
Cr327      Cr  0.26895298  0.49741836  0.36964792     1.93700
Cr328      Cr  0.32809041  0.51522218  0.34528614     1.93200
Cr329      Cr  0.29356995  0.54988689  0.40896291     1.39100
O330        O  0.29685421  0.52077799  0.37424293    -1.22400
O331        O  0.21366043  0.49569424  0.80243785    -0.84700
O332        O  0.24117603  0.52291241  0.86721847    -0.81700
C333        C  0.23796506  0.54843739  0.85822987     0.98800
O334        O  0.21509161  0.55990948  0.86505579    -0.81700
O335        O  0.15908330  0.56695856  0.87649467    -0.84400
C336        C  0.14964363  0.56599275  0.83738114     1.03300
O337        O  0.15223145  0.54416407  0.81521873    -0.77200
O338        O  0.16926448  0.49233563  0.78986460    -0.77300
C339        C  0.19391481  0.49242783  0.77587595     1.03300
O340        O  0.19070406  0.45645343  0.86379532    -0.84700
O341        O  0.21528553  0.48562467  0.93296465    -0.81700
C342        C  0.22167256  0.50509815  0.95865781     0.98800
O343        O  0.21792382  0.52960172  0.94598870    -0.81800
O344        O  0.16091756  0.52998250  0.94957389    -0.84400
C345        C  0.13608017  0.52720518  0.93808840     1.03300
O346        O  0.12987538  0.52247728  0.89761399    -0.77200
O347        O  0.14871144  0.47153423  0.87459067    -0.77300
C348        C  0.16561555  0.45200000  0.87270828     1.03300
Cr349      Cr  0.21294371  0.49184588  0.86736663     1.93700
Cr350      Cr  0.18804750  0.54419961  0.90654705     1.93200
Cr351      Cr  0.15262911  0.50797412  0.84628209     1.39100
O352        O  0.18448979  0.51448770  0.87294317    -1.22400
C353        C  0.22331355  0.51764220  0.57017094    -0.27500
C354        C  0.22660715  0.49192105  0.59073558     0.06100
C355        C  0.24060796  0.47094583  0.56764179     0.25700
C356        C  0.25169190  0.47605635  0.52525701    -0.12000
C357        C  0.24926869  0.50222393  0.50544126    -0.26000
C358        C  0.23450325  0.52284955  0.52823098     0.36500
C359        C  0.21689890  0.48819966  0.63730005     0.06100
F360        F  0.24357342  0.44557035  0.58606975    -0.19700
H361        H  0.26269866  0.45974479  0.50839970     0.15900
F362        F  0.23080392  0.54822042  0.51010182    -0.23500
H363        H  0.21267751  0.53410732  0.58728745     0.17700
C364        C  0.23545441  0.48062751  0.67101239     0.25700
C365        C  0.22731818  0.48097773  0.71560238    -0.12000
C366        C  0.20051075  0.48887824  0.72784550    -0.26000
C367        C  0.18158426  0.49545230  0.69395674     0.36600
C368        C  0.18982380  0.49525873  0.64917971    -0.27600
F369        F  0.26201716  0.47466437  0.66117692    -0.19800
H370        H  0.24241248  0.47582598  0.74081114     0.15900
F371        F  0.15565511  0.50356945  0.70407942    -0.23500
H372        H  0.17525296  0.50138706  0.62373772     0.17700
C373        C  0.29027726  0.49062361  0.15097949    -0.27500
C374        C  0.26247245  0.49209373  0.13853583     0.06100
C375        C  0.24244552  0.49474042  0.17171536     0.25700
C376        C  0.25013719  0.49655208  0.21648395    -0.12000
C377        C  0.27801890  0.49567899  0.22939212    -0.26000
C378        C  0.29806230  0.49216604  0.19597507     0.36500
C379        C  0.25440548  0.49380592  0.09100758     0.06100
F380        F  0.21546308  0.49684427  0.16060484    -0.19700
H381        H  0.23410444  0.49921479  0.24104802     0.15900
F382        F  0.32516546  0.49080095  0.20646807    -0.23500
H383        H  0.30599379  0.48876433  0.12568187     0.17700
C384        C  0.25907463  0.51824829  0.06727243     0.25700
C385        C  0.24889130  0.52135661  0.02404155    -0.12000
C386        C  0.23405243  0.50005434  0.00322882    -0.26000
C387        C  0.23014112  0.47513520  0.02653752     0.36600
C388        C  0.24001900  0.47221556  0.07029218    -0.27600
F389        F  0.27247421  0.53961508  0.08672397    -0.19800
H390        H  0.25231799  0.54073779  0.00700692     0.15900
F391        F  0.21577867  0.45411929  0.00791230    -0.23500
H392        H  0.23603652  0.45330240  0.08834609     0.17700
C393        C  0.05927147  0.65887956  0.76550624    -0.27500
C394        C  0.08761523  0.66017312  0.77385873     0.06100
C395        C  0.10138249  0.68536274  0.76868436     0.25700
C396        C  0.08699615  0.70894594  0.75561715    -0.12000
C397        C  0.05849542  0.70798337  0.74756701    -0.26000
C398        C  0.04472130  0.68255694  0.75267711     0.36500
C399        C  0.10275894  0.63563238  0.78982884     0.06100
F400        F  0.12886724  0.68707302  0.77604539    -0.19700
H401        H  0.09828949  0.72802723  0.75181334     0.15900
F402        F  0.01721919  0.68051384  0.74575701    -0.23500
H403        H  0.04834601  0.63960697  0.76970238     0.17700
C404        C  0.11332863  0.63505932  0.83324750     0.25700
C405        C  0.12875814  0.61255179  0.84794910    -0.12000
C406        C  0.13405987  0.59004643  0.81969019    -0.26000
C407        C  0.12319625  0.59058404  0.77612461     0.36600
C408        C  0.10760015  0.61320203  0.76149697    -0.27600
F409        F  0.10844273  0.65622588  0.86162823    -0.19800
H410        H  0.13638844  0.61272311  0.88182056     0.15900
F411        F  0.12766446  0.56942246  0.74759473    -0.23500
H412        H  0.09962359  0.61342449  0.72782590     0.17700
C413        C  0.16608750  0.57286683  0.34865818    -0.27500
C414        C  0.16852536  0.60088196  0.33750981     0.06100
C415        C  0.19463211  0.61327881  0.33937831     0.25700
C416        C  0.21790843  0.59760045  0.34975231    -0.12000
C417        C  0.21575890  0.56923045  0.35895388    -0.26000
C418        C  0.18937522  0.55714702  0.35933373     0.36500
C419        C  0.14418845  0.61644338  0.32095347     0.06100
F420        F  0.19765906  0.64061509  0.33110740    -0.19700
H421        H  0.23773647  0.60774151  0.35013248     0.15900
F422        F  0.18596973  0.53011974  0.36957164    -0.23500
H423        H  0.14617010  0.56290733  0.34774009     0.17700
C424        C  0.14530777  0.63025008  0.27982667     0.25700
C425        C  0.12196542  0.64314257  0.26247793    -0.12000
C426        C  0.09679104  0.64255753  0.28540796    -0.26000
C427        C  0.09580449  0.62935108  0.32726966     0.36600
C428        C  0.11927559  0.61630419  0.34460702    -0.27600
F429        F  0.16864492  0.63007872  0.25514501    -0.19800
H430        H  0.12350934  0.65300465  0.23021955     0.15900
F431        F  0.07208504  0.62830412  0.35092261    -0.23500
H432        H  0.11793987  0.60580954  0.37637580     0.17700
C433        C  0.07002361  0.55349348  0.98896618    -0.27500
C434        C  0.07725318  0.55501107  0.03418575     0.06100
C435        C  0.10205436  0.54288006  0.04828384     0.25700
C436        C  0.12036351  0.53195279  0.01703881    -0.12000
C437        C  0.11420827  0.53271715  0.97128120    -0.26000
C438        C  0.08829109  0.54260521  0.95771471     0.36500
C439        C  0.06166665  0.57342701  0.06452997     0.06100
F440        F  0.10977881  0.54384110  0.09168916    -0.19700
H441        H  0.14006276  0.52430024  0.02845525     0.15900
F442        F  0.08153676  0.54420055  0.91393691    -0.23500
H443        H  0.05092132  0.56246967  0.97741827     0.17700
C444        C  0.05711146  0.60097030  0.05202251     0.25700
C445        C  0.04694100  0.61987151  0.08265578    -0.12000
C446        C  0.04124421  0.61201314  0.12675451    -0.26000
C447        C  0.04368943  0.58396299  0.13842193     0.36600
C448        C  0.05401753  0.56490061  0.10753908    -0.27600
F449        F  0.06459565  0.61028036  0.01116586    -0.19800
H450        H  0.04495386  0.64114171  0.07222255     0.15900
F451        F  0.03731463  0.57512427  0.18001634    -0.23500
H452        H  0.05693288  0.54368421  0.11765308     0.17700
C453        C  0.98375147  0.73398150  0.42222275    -0.27500
C454        C  0.98997979  0.71428901  0.45484375     0.06100
C455        C  0.99579091  0.68710227  0.44176088     0.25700
C456        C  0.99618387  0.68004113  0.39660829    -0.12000
C457        C  0.99114698  0.70003159  0.36371154    -0.26000
C458        C  0.98445984  0.72709389  0.37711964     0.36500
C459        C  0.99243024  0.72290251  0.50194169     0.06100
F460        F  0.00151289  0.66749391  0.47266209    -0.19700
H461        H  0.00141452  0.65913643  0.38736869     0.15900
F462        F  0.97913707  0.74715502  0.34675260    -0.23500
H463        H  0.97935082  0.75505513  0.43166821     0.17700
C464        C  0.01745305  0.71959232  0.52460458     0.25700
C465        C  0.02058366  0.72970562  0.56772155    -0.12000
C466        C  0.99887877  0.74336298  0.58936217    -0.26000
C467        C  0.97355562  0.74613986  0.56702547     0.36600
C468        C  0.97051471  0.73618717  0.52348353    -0.27600
F469        F  0.03933749  0.70769701  0.50429140    -0.19800
H470        H  0.04031271  0.72715698  0.58395539     0.15900
F471        F  0.95206844  0.75918277  0.58653609    -0.23500
H472        H  0.95112460  0.73906045  0.50634273     0.17700
C473        C  0.01789807  0.75150011  0.02017156    -0.27500
C474        C  0.99158085  0.74940056  0.00147796     0.06100
C475        C  0.97057313  0.73658604  0.02607260     0.25700
C476        C  0.97591278  0.72636846  0.06892081    -0.12000
C477        C  0.00239789  0.72827532  0.08761005    -0.26000
C478        C  0.02340279  0.74095149  0.06250901     0.36500
C479        C  0.98709907  0.75893718  0.95514549     0.06100
F480        F  0.94491206  0.73409464  0.00873712    -0.19700
H481        H  0.95938448  0.71663804  0.08724718     0.15900
F482        F  0.04938269  0.74320764  0.07864378    -0.23500
H483        H  0.03448115  0.76081596  0.00138404     0.17700
C484        C  0.99383413  0.78598463  0.94217817     0.25700
C485        C  0.99337450  0.79352689  0.89713109    -0.12000
C486        C  0.98661403  0.77410358  0.86426305    -0.26000
C487        C  0.97860886  0.74738425  0.87768791     0.36600
C488        C  0.97877084  0.74002836  0.92265462    -0.27600
F489        F  0.00155295  0.80486279  0.97303508    -0.19800
H490        H  0.99957419  0.81418427  0.88784024     0.15900
F491        F  0.97137245  0.72800879  0.84730958    -0.23500
H492        H  0.97364736  0.71906667  0.93193945     0.17700
C493        C  0.37533476  0.69275335  0.26819183    -0.27500
C494        C  0.38921485  0.66750387  0.26929454     0.06100
C495        C  0.41672001  0.66641127  0.25498235     0.25700
C496        C  0.43014048  0.69049815  0.24077498    -0.12000
C497        C  0.41624904  0.71595295  0.24018247    -0.26000
C498        C  0.38849770  0.71665562  0.25383248     0.36500
C499        C  0.37461126  0.64284854  0.28642684     0.06100
F500        F  0.43077949  0.64226945  0.25585669    -0.19700
H501        H  0.45139589  0.68922408  0.23035501     0.15900
F502        F  0.37385136  0.74045352  0.25366378    -0.23500
H503        H  0.35404937  0.69396237  0.27854307     0.17700
C504        C  0.36204300  0.64357738  0.32846632     0.25700
C505        C  0.34676007  0.62112791  0.34370485    -0.12000
C506        C  0.34355220  0.59735693  0.31746260    -0.26000
C507        C  0.35622035  0.59663089  0.27525090     0.36600
C508        C  0.37166301  0.61917947  0.26007304    -0.27600
F509        F  0.36488168  0.66595011  0.35514914    -0.19800
H510        H  0.33763108  0.62233185  0.37648699     0.15900
F511        F  0.35388875  0.57417398  0.24868040    -0.23500
H512        H  0.38094365  0.61836272  0.22736537     0.17700
C513        C  0.35658054  0.60596039  0.80898944    -0.27500
C514        C  0.33023007  0.61408632  0.79524904     0.06100
C515        C  0.32759444  0.63804357  0.76894920     0.25700
C516        C  0.35105971  0.65267227  0.75522618    -0.12000
C517        C  0.37754542  0.64373478  0.76747952    -0.26000
C518        C  0.37991442  0.62048664  0.79545360     0.36500
C519        C  0.30591410  0.59738271  0.80898654     0.06100
F520        F  0.30247797  0.64664377  0.75493772    -0.19700
H521        H  0.34853364  0.67040828  0.73367897     0.15900
F522        F  0.40486977  0.61148537  0.80955753    -0.23500
H523        H  0.35914701  0.58812620  0.83031897     0.17700
C524        C  0.30580117  0.56848838  0.80413177     0.25700
C525        C  0.28379980  0.55269264  0.82024087    -0.12000
C526        C  0.26125398  0.56532233  0.84104943    -0.26000
C527        C  0.26110976  0.59432193  0.84490053     0.36600
C528        C  0.28322035  0.61004614  0.82916049    -0.27600
F529        F  0.32686193  0.55552135  0.78328411    -0.19800
H530        H  0.28431187  0.53054175  0.81608723     0.15900
F531        F  0.23999434  0.60756236  0.86513668    -0.23500
H532        H  0.28291531  0.63215967  0.83383110     0.17700
C533        C  0.43303181  0.60090367  0.54708119    -0.27500
C534        C  0.42713252  0.57371072  0.55955828     0.06100
C535        C  0.43372632  0.56484693  0.60294866     0.25700
C536        C  0.44354018  0.58377446  0.63445012    -0.12000
C537        C  0.44659155  0.61160752  0.62284739    -0.26000
C538        C  0.44246667  0.61974488  0.57850506     0.36500
C539        C  0.40936071  0.55713974  0.52986583     0.06100
F540        F  0.42881079  0.53844636  0.61556870    -0.19700
H541        H  0.44646423  0.57721687  0.66860457     0.15900
F542        F  0.44548498  0.64649585  0.56646735    -0.23500
H543        H  0.42800592  0.60819683  0.51395006     0.17700
C544        C  0.38279358  0.54999534  0.54400092     0.25700
C545        C  0.36336660  0.54058996  0.51339989    -0.12000
C546        C  0.36983113  0.53839095  0.46793409    -0.26000
C547        C  0.39703775  0.54372931  0.45428652     0.36600
C548        C  0.41652915  0.55320497  0.48507156    -0.27600
F549        F  0.37474156  0.55470407  0.58655484    -0.19800
H550        H  0.34269307  0.53658971  0.52505648     0.15900
F551        F  0.40438261  0.54170848  0.41086727    -0.23500
H552        H  0.43682467  0.55891647  0.47352225     0.17700
C553        C  0.48279344  0.79056536  0.43545898    -0.27500
C554        C  0.48543598  0.76239562  0.44545020     0.06100
C555        C  0.49059308  0.74376360  0.41075568     0.25700
C556        C  0.49120016  0.75282583  0.36680552    -0.12000
C557        C  0.48674655  0.78069119  0.35619282    -0.26000
C558        C  0.48350755  0.79974972  0.39118424     0.36500
C559        C  0.48013765  0.75187670  0.49096988     0.06100
F560        F  0.49421994  0.71652266  0.41925854    -0.19700
H561        H  0.49421874  0.73766313  0.34087501     0.15900
F562        F  0.47964189  0.82695093  0.38271835    -0.23500
H563        H  0.47878340  0.80527170  0.46171532     0.17700
C564        C  0.49342100  0.76280097  0.52858690     0.25700
C565        C  0.48819495  0.75178277  0.57091011    -0.12000
C566        C  0.46949564  0.72987264  0.57644099    -0.26000
C567        C  0.45588853  0.71945433  0.53859730     0.36600
C568        C  0.46119195  0.73038212  0.49661669    -0.27600
F569        F  0.51182473  0.78365450  0.52434240    -0.19800
H570        H  0.49885550  0.76038316  0.59934258     0.15900
F571        F  0.43698899  0.69901817  0.54187203    -0.23500
H572        H  0.45016705  0.72212907  0.46825204     0.17700
C573        C  0.46266692  0.70107891  0.93398597    -0.27500
C574        C  0.47888972  0.72396254  0.94533688     0.06100
C575        C  0.49556822  0.73603647  0.91253032     0.25700
C576        C  0.49523906  0.72585780  0.86891164    -0.12000
C577        C  0.47830109  0.70344654  0.85713502    -0.26000
C578        C  0.46221516  0.69095238  0.89049306     0.36500
C579        C  0.47676862  0.73594506  0.99066438     0.06100
F580        F  0.51116481  0.75846040  0.92208334    -0.19700
H581        H  0.50777650  0.73602250  0.84408076     0.15900
F582        F  0.44546535  0.66935505  0.88110772    -0.23500
H583        H  0.44987314  0.69126678  0.95885965     0.17700
C584        C  0.45080690  0.74211778  0.00833216     0.25700
C585        C  0.44837784  0.75239835  0.05137560    -0.12000
C586        C  0.47170553  0.75690247  0.07816973    -0.26000
C587        C  0.49785631  0.75130223  0.06024019     0.36600
C588        C  0.50029234  0.74092268  0.01677775    -0.27600
F589        F  0.42765559  0.73853479  0.98369822    -0.19800
H590        H  0.42795453  0.75679969  0.06373073     0.15900
F591        F  0.52095686  0.75528266  0.08477977    -0.23500
H592        H  0.52050488  0.73623589  0.00382359     0.17700
C593        C  0.13896101  0.84822468  0.77868489    -0.27500
C594        C  0.13538025  0.86716758  0.81340296     0.06100
C595        C  0.10926101  0.86986124  0.83286602     0.25700
C596        C  0.08713257  0.85399032  0.81735230    -0.12000
C597        C  0.09060391  0.83542430  0.78184972    -0.26000
C598        C  0.11694536  0.83253884  0.76298785     0.36500
C599        C  0.15923224  0.88374352  0.82869606     0.06100
F600        F  0.10519488  0.88765842  0.86700674    -0.19700
H601        H  0.06710585  0.85679892  0.83233392     0.15900
F602        F  0.12150735  0.81476415  0.72896904    -0.23500
H603        H  0.15887794  0.84590521  0.76308424     0.17700
C604        C  0.18393872  0.87060840  0.84019421     0.25700
C605        C  0.20718214  0.88606468  0.85089915    -0.12000
C606        C  0.20647321  0.91506769  0.85062238    -0.26000
C607        C  0.18149284  0.92829787  0.84008245     0.36600
C608        C  0.15810578  0.91269125  0.82923237    -0.27600
F609        F  0.18557731  0.84269161  0.84128859    -0.19800
H610        H  0.22584657  0.87512702  0.85951195     0.15900
F611        F  0.17972386  0.95619514  0.83935808    -0.23500
H612        H  0.13929574  0.92321310  0.82009933     0.17700
C613        C  0.35483637  0.85776017  0.75554937    -0.27500
C614        C  0.36140444  0.83553188  0.78363413     0.06100
C615        C  0.35210661  0.83592491  0.82789799     0.25700
C616        C  0.33705779  0.85831785  0.84384583    -0.12000
C617        C  0.33105573  0.88097805  0.81624041    -0.26000
C618        C  0.33990184  0.88033229  0.77158400     0.36500
C619        C  0.37872777  0.81246592  0.76732265     0.06100
F620        F  0.35758016  0.81460954  0.85585138    -0.19700
H621        H  0.33066279  0.85814263  0.87834673     0.15900
F622        F  0.33468014  0.90167675  0.74357895    -0.23500
H623        H  0.36197496  0.85800923  0.72143434     0.17700
C624        C  0.37233240  0.79848715  0.72768730     0.25700
C625        C  0.38865001  0.77643720  0.71345515    -0.12000
C626        C  0.41171603  0.76792534  0.73833090    -0.26000
C627        C  0.41814393  0.78213570  0.77785078     0.36600
C628        C  0.40185951  0.80416038  0.79194019    -0.27600
F629        F  0.34985200  0.80559121  0.70342048    -0.19800
H630        H  0.38307209  0.76589711  0.68301892     0.15900
F631        F  0.43982869  0.77449632  0.80353819    -0.23500
H632        H  0.40736581  0.81480871  0.82231619     0.17700
C633        C  0.42576104  0.88599052  0.04920549    -0.27500
C634        C  0.41538540  0.91121826  0.06465307     0.06100
C635        C  0.41721102  0.91727143  0.11036847     0.25700
C636        C  0.42676456  0.89731932  0.14022786    -0.12000
C637        C  0.43472682  0.87117966  0.12489433    -0.26000
C638        C  0.43554601  0.86624873  0.07883231     0.36500
C639        C  0.39822828  0.92798879  0.03414739     0.06100
F640        F  0.40837798  0.94184340  0.12640974    -0.19700
H641        H  0.42638778  0.90179654  0.17552139     0.15900
F642        F  0.44433030  0.84175491  0.06237908    -0.23500
H643        H  0.42437673  0.88052252  0.01436040     0.17700
C644        C  0.40551834  0.93120774  0.98913112     0.25700
C645        C  0.38559581  0.93842023  0.95772487    -0.12000
C646        C  0.35827635  0.94297246  0.97084509    -0.26000
C647        C  0.35198357  0.94350391  0.01653301     0.36600
C648        C  0.37173374  0.93574390  0.04775278    -0.27600
F649        F  0.43139460  0.92546786  0.97508886    -0.19800
H650        H  0.39124043  0.93878053  0.92288342     0.15900
F651        F  0.32632331  0.94979270  0.03101203    -0.23500
H652        H  0.36545421  0.93355968  0.08211781     0.17700
C653        C  0.06516240  0.81263815  0.27250523    -0.27500
C654        C  0.09401808  0.81169556  0.27480177     0.06100
C655        C  0.10751975  0.78714072  0.26359207     0.25700
C656        C  0.09249726  0.76410709  0.24997787    -0.12000
C657        C  0.06358768  0.76484014  0.24743033    -0.26000
C658        C  0.04999728  0.78940816  0.25925833     0.36500
C659        C  0.11005601  0.83600046  0.28992652     0.06100
F660        F  0.13536566  0.78557597  0.26505190    -0.19700
H661        H  0.10367748  0.74562500  0.24115146     0.15900
F662        F  0.02214173  0.79088929  0.25892060    -0.23500
H663        H  0.05435971  0.83127661  0.28171987     0.17700
C664        C  0.10840944  0.86134611  0.26739861     0.25700
C665        C  0.12363262  0.88408590  0.28228961    -0.12000
C666        C  0.14056570  0.88208400  0.32022204    -0.26000
C667        C  0.14254879  0.85643358  0.34215070     0.36600
C668        C  0.12750924  0.83371952  0.32698496    -0.27600
F669        F  0.09227364  0.86402747  0.23075295    -0.19800
H670        H  0.12160620  0.90347741  0.26471721     0.15900
F671        F  0.15881106  0.85324221  0.37855288    -0.23500
H672        H  0.12914576  0.81433172  0.34469898     0.17700
C673        C  0.05368838  0.90679609  0.60751519    -0.27500
C674        C  0.05870722  0.89870980  0.56339648     0.06100
C675        C  0.05087448  0.87213530  0.54983996     0.25700
C676        C  0.04001877  0.85350846  0.58056657    -0.12000
C677        C  0.03684737  0.86082725  0.62552989    -0.26000
C678        C  0.04263280  0.88815463  0.63833739     0.36500
C679        C  0.07590695  0.91602452  0.53372513     0.06100
F680        F  0.05600792  0.86325524  0.50785651    -0.19700
H681        H  0.03552957  0.83276200  0.56951633     0.15900
F682        F  0.03937904  0.89642213  0.68112619    -0.23500
H683        H  0.05952656  0.92720206  0.61857536     0.17700
C684        C  0.06828920  0.92121105  0.48933109     0.25700
C685        C  0.08736485  0.93227864  0.45938808    -0.12000
C686        C  0.11434811  0.93834370  0.47318665    -0.26000
C687        C  0.12110676  0.93532293  0.51861060     0.36600
C688        C  0.10202712  0.92428509  0.54839811    -0.27600
F689        F  0.04277984  0.91451744  0.47451443    -0.19800
H690        H  0.08139459  0.93472654  0.42487455     0.15900
F691        F  0.14659256  0.94162481  0.53402280    -0.23500
H692        H  0.10831722  0.92056091  0.58248379     0.17700
C693        C  0.23574986  0.00600510  0.07044911    -0.27500
C694        C  0.21917954  0.98584421  0.09074070     0.06100
C695        C  0.21251673  0.96195311  0.06673138     0.25700
C696        C  0.22303758  0.95793711  0.02394661    -0.12000
C697        C  0.24022010  0.97772753  0.00392731    -0.26000
C698        C  0.24605769  0.00213459  0.02733072     0.36500
C699        C  0.21108447  0.98847396  0.13820733     0.06100
F700        F  0.19704335  0.94179296  0.08555608    -0.19700
H701        H  0.21807616  0.93899935  0.00669516     0.15900
F702        F  0.26275493  0.02163725  0.00952726    -0.23500
H703        H  0.24118491  0.02452558  0.08847777     0.17700
C704        C  0.23139338  0.99103965  0.17114493     0.25700
C705        C  0.22425184  0.99069153  0.21612012    -0.12000
C706        C  0.19665607  0.98785622  0.22961761    -0.26000
C707        C  0.17612954  0.98655620  0.19648296     0.36600
C708        C  0.18338683  0.98660763  0.15122613    -0.27600
F709        F  0.25837825  0.99239770  0.15990272    -0.19800
H710        H  0.24063581  0.99188471  0.24048474     0.15900
F711        F  0.14918674  0.98450626  0.20760363    -0.23500
H712        H  0.16740592  0.98480765  0.12626251     0.17700
C713        C  0.26343489  0.96818197  0.56459424    -0.27500
C714        C  0.25501266  0.99114546  0.58939792     0.06100
C715        C  0.23742228  0.01057762  0.56918091     0.25700
C716        C  0.22689884  0.00590307  0.52636314    -0.12000
C717        C  0.23375853  0.98184553  0.50298338    -0.26000
C718        C  0.25301479  0.96354513  0.52187861     0.36500
C719        C  0.26266592  0.99301661  0.63731011     0.06100
F720        F  0.23003554  0.03383321  0.59111998    -0.19700
H721        H  0.21257070  0.02058572  0.51219575     0.15900
F722        F  0.26155027  0.94091661  0.49929718    -0.23500
H723        H  0.27719811  0.95307910  0.57908978     0.17700
C724        C  0.24222766  0.99652810  0.66984237     0.25700
C725        C  0.24875442  0.99453398  0.71500218    -0.12000
C726        C  0.27573481  0.98877369  0.72908758    -0.26000
C727        C  0.29646715  0.98624639  0.69660005     0.36600
C728        C  0.28988855  0.98825409  0.65122265    -0.27600
F729        F  0.21550896  0.00004240  0.65809070    -0.19800
H730        H  0.23231794  0.99664697  0.73900230     0.15900
F731        F  0.32285206  0.98072615  0.70837001    -0.23500
H732        H  0.30598175  0.98540802  0.62681147     0.17700
C733        C  0.35952938  0.87040076  0.33300626    -0.27500
C734        C  0.33481649  0.87074737  0.30901330     0.06100
C735        C  0.33222298  0.85472094  0.27049169     0.25700
C736        C  0.35445217  0.83924573  0.25532225    -0.12000
C737        C  0.37964872  0.83936350  0.27842314    -0.26000
C738        C  0.38179517  0.85467809  0.31811780     0.36500
C739        C  0.31139558  0.88725775  0.32462834     0.06100
F740        F  0.30838807  0.85467394  0.24690770    -0.19700
H741        H  0.35210833  0.82768913  0.22474937     0.15900
F742        F  0.40559270  0.85529063  0.34172833    -0.23500
H743        H  0.36157413  0.88243083  0.36315721     0.17700
C744        C  0.28861092  0.87407892  0.34340192     0.25700
C745        C  0.26567292  0.88935452  0.35589469    -0.12000
C746        C  0.26496805  0.91811841  0.34989743    -0.26000
C747        C  0.28806922  0.93140391  0.33151232     0.36600
C748        C  0.31115056  0.91597127  0.31902318    -0.27600
F749        F  0.28859125  0.84636743  0.34958797    -0.19800
H750        H  0.24837968  0.87854291  0.37038396     0.15900
F751        F  0.28808178  0.95902569  0.32440980    -0.23500
H752        H  0.32861794  0.92630126  0.30416202     0.17700
C753        C  0.38645137  0.33979411  0.36492403    -0.27500
C754        C  0.38739725  0.36508190  0.38797069     0.06100
C755        C  0.41188802  0.37218095  0.41028028     0.25700
C756        C  0.43500650  0.35532987  0.40738302    -0.12000
C757        C  0.43475229  0.33114315  0.38172362    -0.26000
C758        C  0.40991766  0.32296195  0.36166028     0.36500
C759        C  0.36424290  0.38534152  0.38542667     0.06100
F760        F  0.41439269  0.39653072  0.43207209    -0.19700
H761        H  0.45376326  0.36208569  0.42354062     0.15900
F762        F  0.40878319  0.29983173  0.33644267    -0.23500
H763        H  0.36779064  0.33351704  0.34807514     0.17700
C764        C  0.35196240  0.39212390  0.34423106     0.25700
C765        C  0.33428760  0.41487144  0.34067274    -0.12000
C766        C  0.32890014  0.43147219  0.37777880    -0.26000
C767        C  0.33986063  0.42394877  0.41927751     0.36600
C768        C  0.35680838  0.40076264  0.42320253    -0.27600
F769        F  0.35894551  0.37844048  0.30657418    -0.19800
H770        H  0.32657060  0.42080427  0.30820770     0.15900
F771        F  0.33548813  0.44001772  0.45551642    -0.23500
H772        H  0.36537407  0.39577966  0.45550113     0.17700
C773        C  0.39647879  0.12394366  0.92641295    -0.27500
C774        C  0.37952589  0.11828413  0.88956319     0.06100
C775        C  0.38360186  0.13332522  0.84996008     0.25700
C776        C  0.40571951  0.15172111  0.84631824    -0.12000
C777        C  0.42424305  0.15501851  0.88172607    -0.26000
C778        C  0.41888632  0.14181276  0.92239661     0.36500
C779        C  0.36092433  0.09390167  0.89047832     0.06100
F780        F  0.36807118  0.12814756  0.81336063    -0.19700
H781        H  0.40985240  0.16138870  0.81449112     0.15900
F782        F  0.43645378  0.14473377  0.95723620    -0.23500
H783        H  0.39348518  0.11302355  0.95750902     0.17700
C784        C  0.37125779  0.06828547  0.90458190     0.25700
C785        C  0.35508508  0.04469645  0.90175564    -0.12000
C786        C  0.32830115  0.04563132  0.88395216    -0.26000
C787        C  0.31751150  0.07134469  0.87104498     0.36600
C788        C  0.33374787  0.09526344  0.87434096    -0.27600
F789        F  0.39770713  0.06559672  0.91848514    -0.19800
H790        H  0.36413668  0.02532183  0.91208928     0.15900
F791        F  0.29190984  0.07323277  0.85334887    -0.23500
H792        H  0.32531779  0.11476461  0.86334975     0.17700
C793        C  0.47304991  0.24465473  0.06445628    -0.27500
C794        C  0.49596591  0.25515499  0.08735928     0.06100
C795        C  0.52165722  0.25518555  0.06620176     0.25700
C796        C  0.52435580  0.24470900  0.02310079    -0.12000
C797        C  0.50150830  0.23401025  0.99992270    -0.26000
C798        C  0.47566151  0.23437165  0.02102610     0.36500
C799        C  0.49354795  0.26398022  0.13445876     0.06100
F800        F  0.54440053  0.26427839  0.08794835    -0.19700
H801        H  0.54456175  0.24471127  0.00805811     0.15900
F802        F  0.45303782  0.22420705  0.00030631    -0.23500
H803        H  0.45313034  0.24422444  0.08045975     0.17700
C804        C  0.50054687  0.29084764  0.14788182     0.25700
C805        C  0.50053601  0.29791687  0.19316043    -0.12000
C806        C  0.49396139  0.27819643  0.22581715    -0.26000
C807        C  0.48600419  0.25158075  0.21194557     0.36600
C808        C  0.48569791  0.24471169  0.16678689    -0.27600
F809        F  0.50772454  0.31010845  0.11723629    -0.19800
H810        H  0.50670569  0.31851027  0.20275131     0.15900
F811        F  0.47893688  0.23192185  0.24201679    -0.23500
H812        H  0.48022683  0.22393133  0.15709065     0.17700
C813        C  0.49211866  0.18800572  0.64681077    -0.27500
C814        C  0.48821969  0.21546595  0.63318789     0.06100
C815        C  0.48201107  0.23542025  0.66547633     0.25700
C816        C  0.48093674  0.22826884  0.71046005    -0.12000
C817        C  0.48597026  0.20106989  0.72451936    -0.26000
C818        C  0.49087178  0.18076634  0.69201249     0.36500
C819        C  0.49228954  0.22385265  0.58602755     0.06100
F820        F  0.47857934  0.26224234  0.65385209    -0.19700
H821        H  0.47702142  0.24436930  0.73453723     0.15900
F822        F  0.49582797  0.15424205  0.70390924    -0.23500
H823        H  0.49667691  0.17224313  0.62245661     0.17700
C824        C  0.51687563  0.21758046  0.56365373     0.25700
C825        C  0.52207940  0.22871754  0.52150931    -0.12000
C826        C  0.50279416  0.24602544  0.50054577    -0.26000
C827        C  0.47770101  0.25130611  0.52210909     0.36600
C828        C  0.47260581  0.24035473  0.56442978    -0.27600
F829        F  0.53647879  0.20182029  0.58338580    -0.19800
H830        H  0.54143166  0.22403398  0.50544257     0.15900
F831        F  0.45857487  0.26801728  0.50325016    -0.23500
H832        H  0.45343945  0.24527870  0.58087005     0.17700
C833        C  0.88539782  0.84708257  0.74151730    -0.27500
C834        C  0.88077692  0.86049809  0.70060752     0.06100
C835        C  0.89766642  0.85372372  0.66414384     0.25700
C836        C  0.92022646  0.83622634  0.66978630    -0.12000
C837        C  0.92594641  0.82447592  0.71138452    -0.26000
C838        C  0.90778502  0.82912716  0.74689393     0.36500
C839        C  0.86204241  0.88478986  0.69814752     0.06100
F840        F  0.89333730  0.86536412  0.62362150    -0.19700
H841        H  0.93410334  0.83293031  0.64213117     0.15900
F842        F  0.91320642  0.81846833  0.78777173    -0.23500
H843        H  0.87300987  0.85213144  0.77027554     0.17700
C844        C  0.83532857  0.88467303  0.71629852     0.25700
C845        C  0.81974559  0.90911092  0.71775429    -0.12000
C846        C  0.83062649  0.93404062  0.70142478    -0.26000
C847        C  0.85689049  0.93363956  0.68160137     0.36600
C848        C  0.87227558  0.90947591  0.68037034    -0.27600
F849        F  0.82445560  0.86109916  0.73306692    -0.19800
H850        H  0.79963152  0.90872786  0.73309829     0.15900
F851        F  0.86830644  0.95684683  0.66436467    -0.23500
H852        H  0.89289672  0.91043015  0.66694662     0.17700
C853        C  0.65712962  0.06227940  0.75297994    -0.27500
C854        C  0.65786919  0.09098218  0.75929722     0.06100
C855        C  0.68295869  0.10485752  0.75327833     0.25700
C856        C  0.70671753  0.09040613  0.74177602    -0.12000
C857        C  0.70630271  0.06165238  0.73578209    -0.26000
C858        C  0.68107859  0.04767329  0.74145443     0.36500
C859        C  0.63327824  0.10643313  0.77518312     0.06100
F860        F  0.68448607  0.13261384  0.75821451    -0.19700
H861        H  0.72557005  0.10196136  0.73744061     0.15900
F862        F  0.67951269  0.01994542  0.73635812    -0.23500
H863        H  0.63812906  0.05107870  0.75800973     0.17700
C864        C  0.60774023  0.10542006  0.75301718     0.25700
C865        C  0.58532476  0.12102284  0.76860765    -0.12000
C866        C  0.58796297  0.13775017  0.80668701    -0.26000
C867        C  0.61368227  0.13863716  0.82846411     0.36600
C868        C  0.63580295  0.12314447  0.81295712    -0.27600
F869        F  0.60460325  0.08977046  0.71597133    -0.19800
H870        H  0.56583406  0.11969803  0.75128117     0.15900
F871        F  0.61765303  0.15437112  0.86521824    -0.23500
H872        H  0.65511892  0.12409640  0.83088172     0.17700
C873        C  0.61957050  0.90715932  0.15493985    -0.27500
C874        C  0.61722021  0.88796486  0.18975395     0.06100
C875        C  0.63626215  0.88898887  0.22509634     0.25700
C876        C  0.65511853  0.91081279  0.22788491    -0.12000
C877        C  0.65492182  0.93181264  0.19573246    -0.26000
C878        C  0.63795895  0.92910764  0.15811606     0.36500
C879        C  0.59202371  0.87077344  0.19280959     0.06100
F880        F  0.63470190  0.87070254  0.25920591    -0.19700
H881        H  0.66793143  0.91270355  0.25725082     0.15900
F882        F  0.63760972  0.94895922  0.12620427    -0.23500
H883        H  0.60550349  0.90644075  0.12696192     0.17700
C884        C  0.56619797  0.88357530  0.18942753     0.25700
C885        C  0.54220315  0.86834420  0.19457851    -0.12000
C886        C  0.54305054  0.83992483  0.20385875    -0.26000
C887        C  0.56889466  0.82691843  0.20687353     0.36600
C888        C  0.59317583  0.84230480  0.20143859    -0.27600
F889        F  0.56407253  0.91121776  0.18314715    -0.19800
H890        H  0.52280138  0.87918704  0.19219949     0.15900
F891        F  0.57078423  0.79962062  0.21611432    -0.23500
H892        H  0.61286527  0.83206256  0.20431930     0.17700
C893        C  0.56905504  0.16167584  0.33429365    -0.27500
C894        C  0.59643087  0.16441758  0.31987630     0.06100
C895        C  0.60854603  0.19070759  0.32020312     0.25700
C896        C  0.59341752  0.21373858  0.33313911    -0.12000
C897        C  0.56581500  0.21131478  0.34650658    -0.26000
C898        C  0.55384715  0.18485158  0.34761095     0.36500
C899        C  0.61205070  0.14039014  0.30231088     0.06100
F900        F  0.63522822  0.19416835  0.30826837    -0.19700
H901        H  0.60346976  0.23364183  0.33242340     0.15900
F902        F  0.52755930  0.18128051  0.36151260    -0.23500
H903        H  0.55922772  0.14166022  0.33428677     0.17700
C904        C  0.61382300  0.11532363  0.32575687     0.25700
C905        C  0.62924207  0.09334544  0.30855469    -0.12000
C906        C  0.64304973  0.09582652  0.26753950    -0.26000
C907        C  0.64109955  0.12097543  0.24420402     0.36600
C908        C  0.62575129  0.14279862  0.26139445    -0.27600
F909        F  0.60105950  0.11218952  0.36557419    -0.19800
H910        H  0.63009858  0.07424791  0.32717878     0.15900
F911        F  0.65370108  0.12456940  0.20435524    -0.23500
H912        H  0.62433063  0.16168070  0.24227741     0.17700
C913        C  0.60572709  0.05246805  0.03560558    -0.27500
C914        C  0.57983840  0.06081610  0.05093293     0.06100
C915        C  0.57294593  0.05656247  0.09576398     0.25700
C916        C  0.59254820  0.04642372  0.12556898    -0.12000
C917        C  0.61939925  0.04052982  0.11121149    -0.26000
C918        C  0.62545038  0.04244168  0.06541243     0.36500
C919        C  0.56246638  0.07844514  0.02234813     0.06100
F920        F  0.54780315  0.06394779  0.11119320    -0.19700
H921        H  0.58714348  0.04485286  0.16043713     0.15900
F922        F  0.65080389  0.03606715  0.04970302    -0.23500
H923        H  0.61135625  0.05559960  0.00108521     0.17700
C924        C  0.55738518  0.10571156  0.03541756     0.25700
C925        C  0.54471548  0.12403700  0.00629259    -0.12000
C926        C  0.53723052  0.11581797  0.96312789    -0.26000
C927        C  0.54083217  0.08799989  0.95086185     0.36600
C928        C  0.55362567  0.06954784  0.98027181    -0.27600
F929        F  0.56671880  0.11529286  0.07509132    -0.19800
H930        H  0.54225932  0.14522162  0.01685580     0.15900
F931        F  0.53344096  0.07895956  0.90982645    -0.23500
H932        H  0.55748036  0.04857391  0.96971286     0.17700
C933        C  0.76998667  0.01419672  0.02097905    -0.27500
C934        C  0.76014943  0.99224216  0.99510189     0.06100
C935        C  0.74140038  0.97355682  0.01423128     0.25700
C936        C  0.73116161  0.97805032  0.05712290    -0.12000
C937        C  0.73934501  0.00127164  0.08156209    -0.26000
C938        C  0.75968044  0.01875081  0.06380000     0.36500
C939        C  0.76701492  0.99090741  0.94696838     0.06100
F940        F  0.73238229  0.95140044  0.99089026    -0.19700
H941        H  0.71592700  0.96401869  0.07045880     0.15900
F942        F  0.76935397  0.04043515  0.08763129    -0.23500
H943        H  0.78466372  0.02864673  0.00718096     0.17700
C944        C  0.74579626  0.99064223  0.91522056     0.25700
C945        C  0.75179621  0.99184685  0.86989568    -0.12000
C946        C  0.77909692  0.99355841  0.85474553    -0.13200
C947        C  0.80049567  0.99333863  0.88655271     0.36600
C948        C  0.79440927  0.99218553  0.93223016    -0.27600
F949        F  0.71905538  0.99072869  0.92804580    -0.19800
H950        H  0.73478567  0.99215969  0.84661555     0.15900
F951        F  0.82720207  0.99486524  0.87380327    -0.23500
H952        H  0.81107030  0.99260389  0.95616909     0.17700
C953        C  0.73527534  0.97991477  0.41204908    -0.27500
C954        C  0.71619532  0.98824981  0.44412673     0.06100
C955        C  0.68976183  0.99650512  0.43041851     0.25700
C956        C  0.68296905  0.99737008  0.38512267    -0.12000
C957        C  0.70259887  0.99052936  0.35279294    -0.26000
C958        C  0.72869342  0.98114694  0.36681881     0.36500
C959        C  0.72515492  0.99190039  0.49083395     0.06100
F960        F  0.67085984  0.00461579  0.46086299    -0.19700
H961        H  0.66281603  0.00468772  0.37528849     0.15900
F962        F  0.74819479  0.97386117  0.33680132    -0.23500
H963        H  0.75581687  0.97378416  0.42193894     0.17700
C964        C  0.73633985  0.97015459  0.51606347     0.25700
C965        C  0.74571017  0.97487021  0.55964436    -0.12000
C966        C  0.74453678  0.00143083  0.57825104    -0.26000
C967        C  0.73360082  0.02313444  0.55227678     0.36600
C968        C  0.72395025  0.01825998  0.50938972    -0.27600
F969        F  0.73804842  0.94444121  0.49863864    -0.19800
H970        H  0.75420166  0.95785699  0.57856100     0.15900
F971        F  0.73238744  0.04933891  0.56786775    -0.23500
H972        H  0.71600848  0.03538971  0.49007241     0.17700
C973        C  0.09158014  0.33510681  0.86657285    -0.27500
C974        C  0.09182769  0.36189790  0.88462186     0.06100
C975        C  0.06668728  0.37348342  0.89815578     0.25700
C976        C  0.04209354  0.35907511  0.89282096    -0.12000
C977        C  0.04148377  0.33269926  0.87352766    -0.26000
C978        C  0.06669685  0.32046013  0.86147829     0.36500
C979        C  0.11731249  0.37919547  0.88561962     0.06100
F980        F  0.06552831  0.39962469  0.91402098    -0.19700
H981        H  0.02321652  0.36913382  0.90279713     0.15900
F982        F  0.06725319  0.29493174  0.84318070    -0.23500
H983        H  0.11061078  0.32572810  0.85572237     0.17700
C984        C  0.12386068  0.39501639  0.92348148     0.25700
C985        C  0.14191449  0.41741940  0.92014473    -0.12000
C986        C  0.15473539  0.42379498  0.87962501    -0.26000
C987        C  0.15107543  0.40585004  0.84337451     0.36600
C988        C  0.13237982  0.38379312  0.84633955    -0.27600
F989        F  0.11122971  0.39005526  0.96293986    -0.19800
H990        H  0.14455524  0.43088312  0.94855022     0.15900
F991        F  0.16329523  0.41134694  0.80377842    -0.23500
H992        H  0.12797892  0.37181781  0.81679927     0.17700
C993        C  0.86417989  0.19546223  0.81624703    -0.27500
C994        C  0.87688269  0.16964586  0.81359558     0.06100
C995        C  0.90500749  0.16731569  0.82373796     0.25700
C996        C  0.92004877  0.19054802  0.83675933    -0.12000
C997        C  0.90730376  0.21646966  0.83978825    -0.26000
C998        C  0.87907556  0.21864811  0.82920037     0.36500
C999        C  0.86080068  0.14564194  0.79817985     0.06100
F1000       F  0.91809830  0.14275922  0.81976090    -0.19700
H1001       H  0.94168458  0.18823105  0.84438296     0.15900
F1002       F  0.86569893  0.24316623  0.83096433    -0.23500
H1003       H  0.84256247  0.19765364  0.80827741     0.17700
C1004       C  0.85933902  0.12131184  0.82345178     0.25700
C1005       C  0.84459671  0.09862286  0.80751273    -0.12000
C1006       C  0.83109382  0.09982726  0.76611928    -0.26000
C1007       C  0.83197537  0.12461733  0.74154852     0.36600
C1008       C  0.84662595  0.14721505  0.75761745    -0.27600
F1009       F  0.87199996  0.11956255  0.86364062    -0.19800
H1010       H  0.84423287  0.07992577  0.82721084     0.15900
F1011       F  0.81931687  0.12697879  0.70141368    -0.23500
H1012       H  0.84744355  0.16585966  0.73779234     0.17700
C1013       C  0.07880944  0.12935318  0.42231376    -0.27500
C1014       C  0.09602042  0.12265970  0.38633721     0.06100
C1015       C  0.09167609  0.13598375  0.34515913     0.25700
C1016       C  0.06934157  0.15390642  0.33950715    -0.12000
C1017       C  0.05083742  0.15839609  0.37443731    -0.26000
C1018       C  0.05621577  0.14675445  0.41631641     0.36500
C1019       C  0.11446325  0.09823523  0.38967730     0.06100
F1020       F  0.10706089  0.12942735  0.30908648    -0.19700
H1021       H  0.06510627  0.16229203  0.30676403     0.15900
F1022       F  0.03849289  0.15072386  0.45056479    -0.23500
H1023       H  0.08174083  0.11952504  0.45437099     0.17700
C1024       C  0.14141371  0.09810730  0.37254178     0.25700
C1025       C  0.15634460  0.07335556  0.37001128    -0.12000
C1026       C  0.14465798  0.04842155  0.38463749    -0.26000
C1027       C  0.11848365  0.04912580  0.40474935     0.36600
C1028       C  0.10368619  0.07364190  0.40697600    -0.27600
F1029       F  0.15311888  0.12175469  0.35763884    -0.19800
H1030       H  0.17656400  0.07353330  0.35502536     0.15900
F1031       F  0.10660441  0.02591408  0.42114808    -0.23500
H1032       H  0.08305987  0.07304828  0.42045230     0.17700
C1033       C  0.86236868  0.11498311  0.25363579    -0.27500
C1034       C  0.83999781  0.11097385  0.28244891     0.06100
C1035       C  0.84082836  0.12261450  0.32514093     0.25700
C1036       C  0.86333157  0.13841667  0.33831586    -0.12000
C1037       C  0.88577959  0.14272231  0.30957277    -0.26000
C1038       C  0.88511647  0.13069124  0.26696359     0.36500
C1039       C  0.81572928  0.09491782  0.26781170     0.06100
F1040       F  0.82020614  0.11806474  0.35465640    -0.19700
H1041       H  0.86334007  0.14682791  0.37167066     0.15900
F1042       F  0.90639157  0.13389048  0.23828490    -0.23500
H1043       H  0.86209616  0.10609909  0.22060102     0.17700
C1044       C  0.78920691  0.10619063  0.27089269     0.25700
C1045       C  0.76641333  0.09106673  0.25686395    -0.12000
C1046       C  0.76949176  0.06439085  0.23939227    -0.26000
C1047       C  0.79608110  0.05302441  0.23653202     0.36600
C1048       C  0.81895514  0.06827780  0.25046874    -0.27600
F1049       F  0.78536701  0.13217082  0.28633576    -0.19800
H1050       H  0.74627151  0.10041458  0.25946775     0.15900
F1051       F  0.80012320  0.02745741  0.21955475    -0.23500
H1052       H  0.83924009  0.05923797  0.24793278     0.17700
C1053       C  0.91970392  0.07564312  0.47605710    -0.27500
C1054       C  0.91534665  0.08340550  0.52045622     0.06100
C1055       C  0.92568974  0.10881724  0.53536200     0.25700
C1056       C  0.93788535  0.12712587  0.50540223    -0.12000
C1057       C  0.94020488  0.12039618  0.46009916    -0.26000
C1058       C  0.93224353  0.09382355  0.44609727     0.36500
C1059       C  0.89689335  0.06706976  0.54953299     0.06100
F1060       F  0.92186480  0.11699288  0.57807685    -0.19700
H1061       H  0.94411518  0.14723628  0.51727704     0.15900
F1062       F  0.93462719  0.08606816  0.40289216    -0.23500
H1063       H  0.91217995  0.05599719  0.46411108     0.17700
C1064       C  0.86958910  0.06210376  0.53641503     0.25700
C1065       C  0.85059074  0.05157944  0.56687571    -0.12000
C1066       C  0.85837676  0.04579408  0.61105245    -0.26000
C1067       C  0.88624642  0.04892634  0.62312316     0.36600
C1068       C  0.90521565  0.05956790  0.59260871    -0.27600
F1069       F  0.86072246  0.06943724  0.49518597    -0.19800
H1070       H  0.82942438  0.04923515  0.55633652     0.15900
F1071       F  0.89501980  0.04308682  0.66498117    -0.23500
H1072       H  0.92622435  0.06303356  0.60317746     0.17700
C1073       C  0.98791721  0.19008786  0.14011111    -0.27500
C1074       C  0.99045125  0.21763513  0.12614610     0.06100
C1075       C  0.99334315  0.23832696  0.15840379     0.25700
C1076       C  0.99266261  0.23171178  0.20360251    -0.12000
C1077       C  0.98907209  0.20431825  0.21794488    -0.26000
C1078       C  0.98745249  0.18337494  0.18557454     0.36500
C1079       C  0.98678041  0.22531285  0.07865811     0.06100
F1080       F  0.99497209  0.26524009  0.14631106    -0.19700
H1081       H  0.99408665  0.24834477  0.22746296     0.15900
F1082       F  0.98423511  0.15660953  0.19761546    -0.23500
H1083       H  0.98558113  0.17384801  0.11572722     0.17700
C1084       C  0.00560589  0.24268955  0.05678519     0.25700
C1085       C  0.99948564  0.25331039  0.01453406    -0.12000
C1086       C  0.97441507  0.24701823  0.99359014    -0.26000
C1087       C  0.95629942  0.22843354  0.01451960     0.36600
C1088       C  0.96255684  0.21763798  0.05650639    -0.27600
F1089       F  0.02962278  0.24985912  0.07670140    -0.19800
H1090       H  0.01393150  0.26726146  0.99888778     0.15900
F1091       F  0.93238651  0.22086101  0.99464886    -0.23500
H1092       H  0.94781860  0.20422245  0.07266411     0.17700
C1093       C  0.00566249  0.24412516  0.56083664    -0.27500
C1094       C  0.98417737  0.25891733  0.58116926     0.06100
C1095       C  0.96022855  0.26432023  0.55641179     0.25700
C1096       C  0.95757832  0.25460886  0.51301129    -0.12000
C1097       C  0.97860442  0.23919121  0.49292504    -0.26000
C1098       C  0.00298800  0.23436925  0.51701339     0.36500
C1099       C  0.98570095  0.26739131  0.62873626     0.06100
F1100       F  0.93866028  0.27781869  0.57489320    -0.19700
H1101       H  0.93859205  0.25873934  0.49533197     0.15900
F1102       F  0.02367120  0.21930072  0.49907113    -0.23500
H1103       H  0.02438105  0.23982259  0.57911623     0.17700
C1104       C  0.99242571  0.24820769  0.66215144     0.25700
C1105       C  0.98986873  0.25528533  0.70707719    -0.12000
C1106       C  0.98067382  0.28162559  0.71980825    -0.26000
C1107       C  0.97511244  0.30119061  0.68637350     0.36600
C1108       C  0.97773342  0.29410995  0.64142290    -0.27600
F1109       F  0.99996690  0.22211563  0.65152988    -0.19800
H1110       H  0.99452760  0.23982270  0.73200311     0.15900
F1111       F  0.96586730  0.32673343  0.69688110    -0.23500
H1112       H  0.97274316  0.30936270  0.61633494     0.17700
C1113       C  0.84854829  0.58490492  0.16507459    -0.27500
C1114       C  0.85566436  0.59953264  0.20378383     0.06100
C1115       C  0.84156775  0.59349157  0.24358157     0.25700
C1116       C  0.82313605  0.57122597  0.24543112    -0.12000
C1117       C  0.81860761  0.55475250  0.20778162    -0.26000
C1118       C  0.83051341  0.56249988  0.16711285     0.36500
C1119       C  0.88094106  0.61697799  0.20401666     0.06100
F1120       F  0.84776964  0.60710181  0.28170582    -0.19700
H1121       H  0.81446348  0.56529138  0.27722142     0.15900
F1122       F  0.82649193  0.54693864  0.13016363    -0.23500
H1123       H  0.85870131  0.58945790  0.13385553     0.17700
C1124       C  0.90571368  0.60591807  0.18789507     0.25700
C1125       C  0.93020297  0.62066845  0.19141789    -0.12000
C1126       C  0.93099434  0.64683169  0.21139631    -0.26000
C1127       C  0.90609993  0.65845449  0.22633530     0.36600
C1128       C  0.88132817  0.64353661  0.22282073    -0.27600
F1129       F  0.90665168  0.58001062  0.17099060    -0.19800
H1130       H  0.94888242  0.61106472  0.17951221     0.15900
F1131       F  0.90582860  0.68356014  0.24610773    -0.23500
H1132       H  0.86253851  0.65251126  0.23547409     0.17700
C1133       C  0.69292770  0.36940479  0.25207268    -0.27500
C1134       C  0.66651465  0.38089432  0.25265634     0.06100
C1135       C  0.66295451  0.40849107  0.23967105     0.25700
C1136       C  0.68562695  0.42435901  0.22681715    -0.12000
C1137       C  0.71221213  0.41297305  0.22659562    -0.26000
C1138       C  0.71556841  0.38512325  0.23905726     0.36500
C1139       C  0.64328972  0.36456758  0.27033666     0.06100
F1140       F  0.63775033  0.42042616  0.24121293    -0.19700
H1141       H  0.68237552  0.44566600  0.21747782     0.15900
F1142       F  0.74074615  0.37307299  0.23962807    -0.23500
H1143       H  0.69604171  0.34820736  0.26222905     0.17700
C1144       C  0.61926987  0.36017559  0.24531200     0.25700
C1145       C  0.59715862  0.34567291  0.26385108    -0.12000
C1146       C  0.59863703  0.33540117  0.30767426    -0.26000
C1147       C  0.62311334  0.33931672  0.33208169     0.36600
C1148       C  0.64513224  0.35363823  0.31341906    -0.27600
F1149       F  0.61725674  0.36981425  0.20299212    -0.19800
H1150       H  0.57869778  0.34293909  0.24416349     0.15900
F1151       F  0.62564988  0.33009599  0.37455760    -0.23500
H1152       H  0.66349445  0.35686982  0.33317869     0.17700
C1153       C  0.87239715  0.36716413  0.31006849    -0.27500
C1154       C  0.87024515  0.34189256  0.28760597     0.06100
C1155       C  0.85209681  0.33980388  0.25127835     0.25700
C1156       C  0.83668400  0.36259085  0.23757988    -0.12000
C1157       C  0.83886206  0.38796878  0.25980690    -0.26000
C1158       C  0.85685200  0.38999881  0.29649115     0.36500
C1159       C  0.88627045  0.31755706  0.30282294     0.06100
F1160       F  0.84980454  0.31589690  0.22819195    -0.19700
H1161       H  0.82319594  0.36041110  0.20908238     0.15900
F1162       F  0.86009761  0.41418849  0.31846826    -0.23500
H1163       H  0.88604056  0.36917022  0.33840181     0.17700
C1164       C  0.91488428  0.31896288  0.30945998     0.25700
C1165       C  0.92947004  0.29572512  0.32411991    -0.12000
C1166       C  0.91584715  0.27064721  0.33245161    -0.26000
C1167       C  0.88717817  0.26936396  0.32543021     0.36600
C1168       C  0.87270628  0.29255936  0.31093684    -0.27600
F1169       F  0.92881932  0.34261020  0.30087426    -0.19800
H1170       H  0.95148116  0.29738124  0.32885471     0.15900
F1171       F  0.87287500  0.24579651  0.33288080    -0.23500
H1172       H  0.85065339  0.29105887  0.30650963     0.17700
C1173       C  0.91955444  0.41421919  0.97764053    -0.27500
C1174       C  0.91569972  0.40708010  0.02251218     0.06100
C1175       C  0.92282201  0.38036314  0.03675336     0.25700
C1176       C  0.93232446  0.36098277  0.00624934    -0.12000
C1177       C  0.93432790  0.36752267  0.96081687    -0.26000
C1178       C  0.92857854  0.39466471  0.94692184     0.36500
C1179       C  0.89995356  0.42561946  0.05218096     0.06100
F1180       F  0.91820601  0.37204378  0.07923851    -0.19700
H1181       H  0.93655165  0.34029256  0.01794109     0.15900
F1182       F  0.92980647  0.40194400  0.90333128    -0.23500
H1183       H  0.91413946  0.43461787  0.96589357     0.17700
C1184       C  0.90733715  0.42939482  0.09705568     0.25700
C1185       C  0.88860408  0.44104129  0.12682554    -0.12000
C1186       C  0.86243669  0.44932157  0.11210852    -0.26000
C1187       C  0.85653765  0.44870288  0.06624099     0.36600
C1188       C  0.87506986  0.43677011  0.03673864    -0.27600
F1189       F  0.93202988  0.42053923  0.11255140    -0.19800
H1190       H  0.89388694  0.44177015  0.16182985     0.15900
F1191       F  0.83206809  0.45784128  0.05018251    -0.23500
H1192       H  0.86898168  0.43446199  0.00225958     0.17700
C1193       C  0.63140875  0.59543528  0.66916954    -0.27500
C1194       C  0.61679724  0.60509792  0.70661026     0.06100
C1195       C  0.61983093  0.59073684  0.74711484     0.25700
C1196       C  0.63595724  0.56703995  0.74951518    -0.12000
C1197       C  0.64914931  0.55638687  0.71171768    -0.26000
C1198       C  0.64749315  0.57130433  0.67162101     0.36500
C1199       C  0.59568835  0.62747683  0.70250915     0.06100
F1200       F  0.60521090  0.59792383  0.78371862    -0.19700
H1201       H  0.63683215  0.55600712  0.78086722     0.15900
F1202       F  0.65959605  0.56154154  0.63419163    -0.23500
H1203       H  0.62946119  0.60595517  0.63752070     0.17700
C1204       C  0.59191096  0.64715611  0.73653008     0.25700
C1205       C  0.56789400  0.66307708  0.73804620    -0.12000
C1206       C  0.54782714  0.66070303  0.70472655    -0.26000
C1207       C  0.55288582  0.64341506  0.66825162     0.36600
C1208       C  0.57653384  0.62686395  0.66730138    -0.27600
F1209       F  0.61084263  0.65018609  0.76940620    -0.19800
H1210       H  0.56438651  0.67642930  0.76633494     0.15900
F1211       F  0.53382931  0.64078015  0.63549182    -0.23500
H1212       H  0.57880678  0.61212831  0.64054590     0.17700
C1213       C  0.56556261  0.31593514  0.83335178    -0.27500
C1214       C  0.59086801  0.31292153  0.81129695     0.06100
C1215       C  0.60115000  0.28619762  0.80423114     0.25700
C1216       C  0.58613568  0.26316022  0.81815264    -0.12000
C1217       C  0.56045659  0.26617448  0.83904275    -0.26000
C1218       C  0.55035484  0.29291722  0.84669631     0.36500
C1219       C  0.60562621  0.33764692  0.79413708     0.06100
F1220       F  0.62522777  0.28222124  0.78244228    -0.19700
H1221       H  0.59446343  0.24285602  0.81183596     0.15900
F1222       F  0.52596678  0.29696164  0.86756192    -0.23500
H1223       H  0.55744883  0.33625135  0.84021801     0.17700
C1224       C  0.59110856  0.35834049  0.77120070     0.25700
C1225       C  0.60475495  0.38159105  0.75524781    -0.12000
C1226       C  0.63327247  0.38464138  0.76079945    -0.26000
C1227       C  0.64802012  0.36391032  0.78312042     0.36600
C1228       C  0.63422124  0.34073223  0.80000620    -0.27600
F1229       F  0.56377777  0.35578635  0.76294999    -0.19800
H1230       H  0.59297030  0.39710165  0.73761615     0.15900
F1231       F  0.67550286  0.36643165  0.78976370    -0.23500
H1232       H  0.64585061  0.32534094  0.81810065     0.17700
C1233       C  0.59171483  0.44167240  0.54252077    -0.27500
C1234       C  0.56746797  0.42829966  0.55570046     0.06100
C1235       C  0.55907833  0.43020391  0.60043550     0.25700
C1236       C  0.57623526  0.44263763  0.63209324    -0.12000
C1237       C  0.60190231  0.45319210  0.61948638    -0.26000
C1238       C  0.60893042  0.45380774  0.57420205     0.36500
C1239       C  0.55500274  0.40764186  0.52539973     0.06100
F1240       F  0.53547761  0.41792126  0.61407820    -0.19700
H1241       H  0.57069612  0.44158144  0.66696024     0.15900
F1242       F  0.63374919  0.46363702  0.56124670    -0.23500
H1243       H  0.59874368  0.44027554  0.50841267     0.17700
C1244       C  0.54795441  0.41408640  0.48118112     0.25700
C1245       C  0.54134061  0.39303099  0.45105416    -0.12000
C1246       C  0.54190096  0.36519189  0.46439565    -0.26000
C1247       C  0.54773744  0.35904214  0.50932938     0.36600
C1248       C  0.55414364  0.38004379  0.53923548    -0.27600
F1249       F  0.54816451  0.44062919  0.46690358    -0.19800
H1250       H  0.53666290  0.39848884  0.41691250     0.15900
F1251       F  0.54856835  0.33264246  0.52425383    -0.23500
H1252       H  0.55999556  0.37451467  0.57289172     0.17700
C1253       C  0.79987915  0.41447674  0.78387195    -0.27500
C1254       C  0.80491390  0.38859330  0.76466855     0.06100
C1255       C  0.78689022  0.37889362  0.73166180     0.25700
C1256       C  0.76433693  0.39482602  0.71821049    -0.12000
C1257       C  0.75918366  0.42083262  0.73727913    -0.26000
C1258       C  0.77740266  0.43053470  0.77031330     0.36500
C1259       C  0.82847611  0.37158528  0.78035419     0.06100
F1260       F  0.79057797  0.35360814  0.71341528    -0.19700
H1261       H  0.75069915  0.38656733  0.69302779     0.15900
F1262       F  0.77359797  0.45547568  0.78968797    -0.23500
H1263       H  0.81352326  0.42232795  0.80940422     0.17700
C1264       C  0.84897983  0.36239868  0.75090228     0.25700
C1265       C  0.87167584  0.34744906  0.76687792    -0.12000
C1266       C  0.87420515  0.34105179  0.81240579    -0.26000
C1267       C  0.85316960  0.34974857  0.84156228     0.36600
C1268       C  0.83079477  0.36496875  0.82562772    -0.27600
F1269       F  0.84757457  0.36874893  0.70695657    -0.19800
H1270       H  0.88747244  0.34118557  0.74365455     0.15900
F1271       F  0.85450274  0.34438177  0.88586651    -0.23500
H1272       H  0.81518393  0.37173090  0.84884143     0.17700
C1273       C  0.69624248  0.46289722  0.92903400    -0.27500
C1274       C  0.70943527  0.48667826  0.94522411     0.06100
C1275       C  0.71318031  0.50913186  0.91615509     0.25700
C1276       C  0.70417507  0.50760936  0.87198074    -0.12000
C1277       C  0.69092119  0.48387691  0.85589738    -0.26000
C1278       C  0.68690150  0.46151164  0.88501492     0.36500
C1279       C  0.72004508  0.48738686  0.99177236     0.06100
F1280       F  0.72522070  0.53273139  0.93051530    -0.19700
H1281       H  0.70748606  0.52514717  0.85031408     0.15900
F1282       F  0.67498001  0.43786175  0.87055893    -0.23500
H1283       H  0.69372908  0.44501141  0.95022064     0.17700
C1284       C  0.70411436  0.47721042  0.02731658     0.25700
C1285       C  0.71536864  0.47518513  0.07002938    -0.12000
C1286       C  0.74231992  0.48396524  0.07841688    -0.26000
C1287       C  0.75784180  0.49544377  0.04378670     0.36600
C1288       C  0.74685825  0.49689601  0.00072485    -0.27600
F1289       F  0.67776440  0.46894244  0.02072551    -0.19800
H1290       H  0.70321425  0.46618322  0.09653360     0.15900
F1291       F  0.78414163  0.50364418  0.05106519    -0.23500
H1292       H  0.75977523  0.50441895  0.97402657     0.17700
C1293       C  0.74233177  0.46245837  0.41162577    -0.27500
C1294       C  0.75461426  0.48016261  0.44278061     0.06100
C1295       C  0.77671072  0.49691004  0.42886241     0.25700
C1296       C  0.78543518  0.49657120  0.38427952    -0.12000
C1297       C  0.77196400  0.47992779  0.35287297    -0.26000
C1298       C  0.75055390  0.46255590  0.36722678     0.36500
C1299       C  0.74350063  0.48116953  0.48899691     0.06100
F1300       F  0.78903869  0.51448956  0.45772628    -0.19700
H1301       H  0.80194504  0.51009803  0.37395556     0.15900
F1302       F  0.73750475  0.44549945  0.33826799    -0.23500
H1303       H  0.72599298  0.44861459  0.42158471     0.17700
C1304       C  0.71487866  0.48165030  0.49613414     0.25700
C1305       C  0.70421834  0.47973112  0.53910180    -0.12000
C1306       C  0.72166134  0.47795039  0.57614410    -0.26000
C1307       C  0.75028643  0.47890680  0.56953292     0.36600
C1308       C  0.76106966  0.48026823  0.52625147    -0.27600
F1309       F  0.69706302  0.48389682  0.46148925    -0.19800
H1310       H  0.68217532  0.47948293  0.54343831     0.15900
F1311       F  0.76780383  0.47687623  0.60459642    -0.23500
H1312       H  0.78314486  0.47958696  0.52183351     0.17700
loop_ 
_geom_bond_atom_site_label_1 
_geom_bond_atom_site_label_2 
_geom_bond_distance 
_geom_bond_site_symmetry_2 
_ccdc_geom_bond_type 
O1          Cr19   2.013       .  S
O1            C9   1.270       .  A
O2          Cr19   1.991       .  S
O2            C3   1.263       .  A
C3            O4   1.266       .  A
C3         C1257   1.494       .  S
O4          Cr20   2.003       .  S
O5          Cr20   1.998       .  S
O5            C6   1.260       .  A
C6            O7   1.258       .  A
C6         C1226   1.479       .  S
O7          Cr21   1.990       .  S
O8          Cr21   1.985       .  S
O8            C9   1.265       .  A
C9         C1277   1.482       .  S
O10         Cr19   2.015       .  S
O10          C18   1.266       .  A
O11         Cr19   2.016       .  S
O11          C12   1.265       .  A
C12          O13   1.259       .  A
C12        C1306   1.480       .  S
O13         Cr20   1.974       .  S
O14         Cr20   2.001       .  S
O14          C15   1.268       .  A
C15          O16   1.267       .  A
C15        C1237   1.470       .  S
O16         Cr21   1.992       .  S
O17         Cr21   1.991       .  S
O17          C18   1.261       .  A
C18        C1197   1.488       .  S
Cr19         O22   1.778       .  S
Cr20         O22   1.768       .  S
Cr21         O22   1.773       .  S
O23         Cr41   2.028       .  S
O23          C31   1.273       .  A
O24         Cr41   1.958       .  S
O24          C25   1.257       .  A
C25          O26   1.271       .  A
C25        C1297   1.481       .  S
O26         Cr42   2.029       .  S
O27         Cr42   1.981       .  S
O27          C28   1.259       .  A
C28          O29   1.264       .  A
C28        C1157   1.485       .  S
O29         Cr43   2.007       .  S
O30         Cr43   1.962       .  S
O30          C31   1.260       .  A
C31        C1137   1.484       .  S
O32         Cr41   1.989       .  S
O32          C40   1.260       .  A
O33         Cr41   2.031       .  S
O33          C34   1.268       .  A
C34          O35   1.255       .  A
C34        C1117   1.475       .  S
O35         Cr42   1.964       .  S
O36         Cr42   2.021       .  S
O36          C37   1.271       .  A
C37          O38   1.260       .  A
C37        C1186   1.477       .  S
O38         Cr43   1.961       .  S
O39         Cr43   2.004       .  S
O39          C40   1.262       .  A
C40        C1286   1.468       .  S
Cr41         O44   1.770       .  S
Cr42         O44   1.770       .  S
Cr43         O44   1.762       .  S
O45         Cr63   1.965       .  S
O45          C53   1.260       .  A
O46         Cr63   2.029       .  S
O46          C47   1.274       .  A
C47          O48   1.262       .  A
C47        C1166   1.489       .  S
O48         Cr64   1.969       .  S
O49         Cr64   1.994       .  S
O49          C50   1.261       .  A
C50          O51   1.261       .  A
C50        C1037   1.485       .  S
O51         Cr65   1.988       .  S
O52         Cr65   2.022       .  S
O52          C53   1.270       .  A
C53        C1077   1.489       .  S
O54         Cr63   2.019   1_455  S
O54          C62   1.265       .  A
O55         Cr63   1.998       .  S
O55          C56   1.261       .  A
C56          O57   1.261       .  A
C56        C1097   1.484       .  S
O57         Cr64   1.995       .  S
O58         Cr64   1.975       .  S
O58          C59   1.264       .  A
C59          O60   1.270       .  A
C59        C1057   1.484       .  S
O60         Cr65   2.018       .  S
O61         Cr65   1.966   1_455  S
O61          C62   1.256       .  A
C62        C1017   1.470       .  S
Cr63         O66   1.776       .  S
Cr64         O66   1.764       .  S
Cr65         O66   1.772       .  S
O67         Cr85   2.035       .  S
O67          C75   1.276       .  A
O68         Cr85   1.966       .  S
O68          C69   1.258       .  A
C69          O70   1.268       .  A
C69        C1106   1.487       .  S
O70         Cr86   2.016       .  S
O71         Cr86   1.994       .  S
O71          C72   1.261       .  A
C72          O73   1.263       .  A
C72        C1266   1.493       .  S
O73         Cr87   2.009       .  S
O74         Cr87   1.954       .  S
O74          C75   1.260       .  A
C75         C997   1.484       .  S
O76         Cr85   1.983       .  S
O76          C84   1.257       .  A
O77         Cr85   2.032   1_455  S
O77          C78   1.270       .  A
C78          O79   1.259   1_455  A
C78         C977   1.496       .  S
O79         Cr86   1.966       .  S
O80         Cr86   2.017       .  S
O80          C81   1.271       .  A
C81          O82   1.263       .  A
C81        C1177   1.479       .  S
O82         Cr87   1.966       .  S
O83         Cr87   2.010       .  S
O83          C84   1.262       .  A
C84        C1086   1.482       .  S
Cr85         O88   1.775       .  S
Cr86         O88   1.769       .  S
Cr87         O88   1.769       .  S
O89        Cr107   2.025   1_545  S
O89          C97   1.272       .  A
O90        Cr107   1.956       .  S
O90          C91   1.256       .  A
C91          O92   1.271       .  A
C91         C957   1.482       .  S
O92        Cr108   2.025   1_565  S
O93        Cr108   1.980       .  S
O93          C94   1.259       .  A
C94          O95   1.266       .  A
C94         C906   1.491       .  S
O95        Cr109   2.016       .  S
O96        Cr109   1.964       .  S
O96          C97   1.261       .  A
C97        C1046   1.482       .  S
O98        Cr107   1.981       .  S
O98         C106   1.259   1_565  A
O99        Cr107   2.024       .  S
O99         C100   1.266       .  A
C100        O101   1.255       .  A
C100        C877   1.472       .  S
O101       Cr108   1.959   1_565  S
O102       Cr108   2.018       .  S
O102        C103   1.271       .  A
C103        O104   1.262       .  A
C103        C917   1.482       .  S
O104       Cr109   1.972       .  S
O105       Cr109   2.016       .  S
O105        C106   1.265       .  A
C106        C937   1.480       .  S
Cr107       O110   1.772   1_565  S
Cr108       O110   1.767       .  S
Cr109       O110   1.764       .  S
O111       Cr129   1.969       .  S
O111        C119   1.261       .  A
O112       Cr129   2.041   1_545  S
O112        C113   1.275       .  A
C113        O114   1.263       .  A
C113        C857   1.495       .  S
O114       Cr130   1.970       .  S
O115       Cr130   1.997       .  S
O115        C116   1.261       .  A
C116        O117   1.258       .  A
C116       C1006   1.482       .  S
O117       Cr131   1.978       .  S
O118       Cr131   2.020   1_565  S
O118        C119   1.269       .  A
C119        C946   1.491       .  S
O120       Cr129   2.034       .  S
O120        C128   1.270       .  A
O121       Cr129   1.999       .  S
O121        C122   1.262   1_565  A
C122        O123   1.260       .  A
C122        C966   1.486       .  S
O123       Cr130   1.988       .  S
O124       Cr130   1.975       .  S
O124        C125   1.263       .  A
C125        O126   1.271       .  A
C125       C1066   1.488       .  S
O126       Cr131   2.023       .  S
O127       Cr131   1.957   1_565  S
O127        C128   1.256       .  A
C128        C846   1.491       .  S
Cr129       O132   1.775   1_565  S
Cr130       O132   1.765       .  S
Cr131       O132   1.769       .  S
O133       Cr151   2.026       .  S
O133        C141   1.272       .  A
O134       Cr151   1.965       .  S
O134        C135   1.261       .  A
C135        O136   1.271       .  A
C135        C817   1.487       .  S
O136       Cr152   2.022       .  S
O137       Cr152   1.994       .  S
O137        C138   1.261       .  A
C138        O139   1.263       .  A
C138        C866   1.493       .  S
O139       Cr153   1.999       .  S
O140       Cr153   1.969       .  S
O140        C141   1.261       .  A
C141       C1217   1.484       .  S
O142       Cr151   1.998       .  S
O142        C150   1.263       .  A
O143       Cr151   2.021       .  S
O143        C144   1.265       .  A
C144        O145   1.256       .  A
C144        C777   1.472       .  S
O145       Cr152   1.969       .  S
O146       Cr152   2.020       .  S
O146        C147   1.270       .  A
C147        O148   1.261       .  A
C147        C926   1.481       .  S
O148       Cr153   1.962       .  S
O149       Cr153   2.005       .  S
O149        C150   1.263       .  A
C150        C797   1.491       .  S
Cr151       O154   1.776       .  S
Cr152       O154   1.775       .  S
Cr153       O154   1.761       .  S
O155       Cr173   1.964       .  S
O155        C163   1.258       .  A
O156       Cr173   2.039       .  S
O156        C157   1.275       .  A
C157        O158   1.262       .  A
C157        C897   1.490       .  S
O158       Cr174   1.962       .  S
O159       Cr174   2.009       .  S
O159        C160   1.265       .  A
C160        O161   1.257       .  A
C160       C1146   1.485       .  S
O161       Cr175   1.976       .  S
O162       Cr175   2.024       .  S
O162        C163   1.270       .  A
C163        C806   1.488       .  S
O164       Cr173   2.037       .  S
O164        C172   1.271       .  A
O165       Cr173   1.982       .  S
O165        C166   1.259       .  A
C166        O167   1.264       .  A
C166        C826   1.483       .  S
O167       Cr174   2.011       .  S
O168       Cr174   1.969       .  S
O168        C169   1.262       .  A
C169        O170   1.272       .  A
C169       C1246   1.488       .  S
O170       Cr175   2.027       .  S
O171       Cr175   1.954       .  S
O171        C172   1.255       .  A
C172        C757   1.487       .  S
Cr173       O176   1.773       .  S
Cr174       O176   1.765       .  S
Cr175       O176   1.770       .  S
O177       Cr195   2.033       .  S
O177        C185   1.275       .  A
O178       Cr195   1.961       .  S
O178        C179   1.258       .  A
C179        O180   1.270       .  A
C179        C706   1.492       .  S
O180       Cr196   2.026       .  S
O181       Cr196   1.982       .  S
O181        C182   1.259       .  A
C182        O183   1.264       .  A
C182        C666   1.489       .  S
O183       Cr197   2.012       .  S
O184       Cr197   1.955       .  S
O184        C185   1.261       .  A
C185        C746   1.481       .  S
O186       Cr195   1.989       .  S
O186        C194   1.259       .  A
O187       Cr195   2.028   1_545  S
O187        C188   1.269       .  A
C188        O189   1.256       .  A
C188       C1026   1.488       .  S
O189       Cr196   1.957   1_545  S
O190       Cr196   2.028       .  S
O190        C191   1.273       .  A
C191        O192   1.262       .  A
C191        C686   1.485       .  S
O192       Cr197   1.966       .  S
O193       Cr197   2.008       .  S
O193        C194   1.262       .  A
C194        C717   1.484       .  S
Cr195       O198   1.776       .  S
Cr196       O198   1.771       .  S
Cr197       O198   1.767       .  S
O199       Cr217   1.971       .  S
O199        C207   1.260       .  A
O200       Cr217   2.041       .  S
O200        C201   1.278       .  A
C201        O202   1.263       .  A
C201        C606   1.488       .  S
O202       Cr218   1.958       .  S
O203       Cr218   2.013       .  S
O203        C204   1.265       .  A
C204        O205   1.257       .  A
C204        C617   1.486       .  S
O205       Cr219   1.978       .  S
O206       Cr219   2.011       .  S
O206        C207   1.266       .  A
C207        C726   1.488       .  S
O208       Cr217   2.037   1_545  S
O208        C216   1.272       .  A
O209       Cr217   1.995       .  S
O209        C210   1.260       .  A
C210        O211   1.261       .  A
C210        C697   1.486   1_556  S
O211       Cr218   2.002       .  S
O212       Cr218   1.966       .  S
O212        C213   1.261       .  A
C213        O214   1.270       .  A
C213        C646   1.476       .  S
O214       Cr219   2.013       .  S
O215       Cr219   1.947       .  S
O215        C216   1.254   1_565  A
C216        C786   1.488       .  S
Cr217       O220   1.771       .  S
Cr218       O220   1.765       .  S
Cr219       O220   1.769       .  S
O221       Cr239   1.980       .  S
O221        C229   1.262       .  A
O222       Cr239   2.012       .  S
O222        C223   1.268       .  A
C223        O224   1.263       .  A
C223        C577   1.488       .  S
O224       Cr240   1.980       .  S
O225       Cr240   2.000       .  S
O225        C226   1.263       .  A
C226        O227   1.262       .  A
C226        C517   1.491       .  S
O227       Cr241   1.992       .  S
O228       Cr241   2.005       .  S
O228        C229   1.266       .  A
C229        C626   1.487       .  S
O230       Cr239   2.008       .  S
O230        C238   1.264       .  A
O231       Cr239   1.999       .  S
O231        C232   1.262       .  A
C232        O233   1.263       .  A
C232       C1206   1.477       .  S
O233       Cr240   2.007       .  S
O234       Cr240   1.989       .  S
O234        C235   1.264       .  A
C235        O236   1.266       .  A
C235        C537   1.469       .  S
O236       Cr241   1.994       .  S
O237       Cr241   1.971       .  S
O237        C238   1.258       .  A
C238        C566   1.485       .  S
Cr239       O242   1.776       .  S
Cr240       O242   1.773       .  S
Cr241       O242   1.773       .  S
O243       Cr261   1.962       .  S
O243        C251   1.259       .  A
O244       Cr261   2.039       .  S
O244        C245   1.277       .  A
C245        O246   1.262       .  A
C245        C497   1.489       .  S
O246       Cr262   1.957       .  S
O247       Cr262   1.998       .  S
O247        C248   1.261       .  A
C248        O249   1.256       .  A
C248        C737   1.481       .  S
O249       Cr263   1.979       .  S
O250       Cr263   2.009       .  S
O250        C251   1.266       .  A
C251        C557   1.484       .  S
O252       Cr261   2.027       .  S
O252        C260   1.269       .  A
O253       Cr261   1.998       .  S
O253        C254   1.260       .  A
C254        O255   1.259       .  A
C254        C586   1.487       .  S
O255       Cr262   1.991       .  S
O256       Cr262   1.961       .  S
O256        C257   1.262       .  A
C257        O258   1.271       .  A
C257        C637   1.474       .  S
O258       Cr263   2.017       .  S
O259       Cr263   1.952       .  S
O259        C260   1.256       .  A
C260        C886   1.488       .  S
Cr261       O264   1.774       .  S
Cr262       O264   1.763       .  S
Cr263       O264   1.772       .  S
O265       Cr283   1.958       .  S
O265        C273   1.257       .  A
O266       Cr283   2.038   1_455  S
O266        C267   1.275       .  A
C267        O268   1.261       .  A
C267        C657   1.490       .  S
O268       Cr284   1.964       .  S
O269       Cr284   2.007       .  S
O269        C270   1.264       .  A
C270        O271   1.258       .  A
C270        C426   1.490       .  S
O271       Cr285   1.986       .  S
O272       Cr285   2.021   1_655  S
O272        C273   1.271       .  A
C273        C457   1.484       .  S
O274       Cr283   2.032       .  S
O274        C282   1.269       .  A
O275       Cr283   1.989       .  S
O275        C276   1.260   1_655  A
C276        O277   1.263       .  A
C276        C477   1.487       .  S
O277       Cr284   2.004       .  S
O278       Cr284   1.962       .  S
O278        C279   1.261       .  A
C279        O280   1.273       .  A
C279        C446   1.488       .  S
O280       Cr285   2.032       .  S
O281       Cr285   1.963   1_655  S
O281        C282   1.257       .  A
C282       C1126   1.492       .  S
Cr283       O286   1.775   1_655  S
Cr284       O286   1.764       .  S
Cr285       O286   1.771       .  S
O287       Cr305   2.027   1_455  S
O287        C295   1.272       .  A
O288       Cr305   1.958       .  S
O288        C289   1.258       .  A
C289        O290   1.272       .  A
C289        C486   1.485       .  S
O290       Cr306   2.025   1_655  S
O291       Cr306   1.982       .  S
O291        C292   1.258       .  A
C292        O293   1.262       .  A
C292        C597   1.486       .  S
O293       Cr307   2.003       .  S
O294       Cr307   1.972       .  S
O294        C295   1.263       .  A
C295        C397   1.489       .  S
O296       Cr305   1.992       .  S
O296        C304   1.262   1_655  A
O297       Cr305   2.023       .  S
O297        C298   1.265       .  A
C298        O299   1.255       .  A
C298        C837   1.473       .  S
O299       Cr306   1.968   1_655  S
O300       Cr306   2.025       .  S
O300        C301   1.272       .  A
C301        O302   1.262       .  A
C301        C677   1.485       .  S
O302       Cr307   1.969       .  S
O303       Cr307   1.999       .  S
O303        C304   1.263       .  A
C304        C466   1.484   1_455  S
Cr305       O308   1.775   1_655  S
Cr306       O308   1.773       .  S
Cr307       O308   1.765       .  S
O309       Cr327   2.032       .  S
O309        C317   1.274       .  A
O310       Cr327   1.969       .  S
O310        C311   1.260       .  A
C311        O312   1.271       .  A
C311        C377   1.495       .  S
O312       Cr328   2.030       .  S
O313       Cr328   1.981       .  S
O313        C314   1.259       .  A
C314        O315   1.265       .  A
C314        C506   1.489       .  S
O315       Cr329   2.009       .  S
O316       Cr329   1.971       .  S
O316        C317   1.263       .  A
C317        C417   1.491       .  S
O318       Cr327   1.995       .  S
O318        C326   1.262       .  A
O319       Cr327   2.029       .  S
O319        C320   1.268       .  A
C320        O321   1.255       .  A
C320        C766   1.474       .  S
O321       Cr328   1.964       .  S
O322       Cr328   2.026       .  S
O322        C323   1.271       .  A
C323        O324   1.261       .  A
C323        C546   1.485       .  S
O324       Cr329   1.967       .  S
O325       Cr329   2.003       .  S
O325        C326   1.263       .  A
C326        C357   1.488       .  S
Cr327       O330   1.774       .  S
Cr328       O330   1.774       .  S
Cr329       O330   1.765       .  S
O331       Cr349   1.960       .  S
O331        C339   1.258       .  A
O332       Cr349   2.039       .  S
O332        C333   1.277       .  A
C333        O334   1.262       .  A
C333        C526   1.491       .  S
O334       Cr350   1.967       .  S
O335       Cr350   2.004       .  S
O335        C336   1.262       .  A
C336        O337   1.259       .  A
C336        C406   1.489       .  S
O337       Cr351   1.988       .  S
O338       Cr351   2.029       .  S
O338        C339   1.272       .  A
C339        C366   1.489       .  S
O340       Cr349   2.033       .  S
O340        C348   1.269       .  A
O341       Cr349   1.997       .  S
O341        C342   1.260       .  A
C342        O343   1.261       .  A
C342        C386   1.487   1_556  S
O343       Cr350   2.003       .  S
O344       Cr350   1.973       .  S
O344        C345   1.263       .  A
C345        O346   1.274       .  A
C345        C437   1.485       .  S
O346       Cr351   2.028       .  S
O347       Cr351   1.971       .  S
O347        C348   1.257       .  A
C348        C986   1.482       .  S
Cr349       O352   1.776       .  S
Cr350       O352   1.770       .  S
Cr351       O352   1.772       .  S
C353        C354   1.401       .  A
C353        C358   1.396       .  A
C353        H363   1.084       .  S
C354        C359   1.488       .  S
C354        C355   1.410       .  A
C355        C356   1.406       .  A
C355        F360   1.357       .  S
C356        C357   1.407       .  A
C356        H361   1.083       .  S
C357        C358   1.412       .  A
C358        F362   1.358       .  S
C359        C364   1.404       .  A
C359        C368   1.408       .  A
C364        C365   1.398       .  A
C364        F369   1.358       .  S
C365        C366   1.409       .  A
C365        H370   1.083       .  S
C366        C367   1.408       .  A
C367        C368   1.405       .  A
C367        F371   1.357       .  S
C368        H372   1.083       .  S
C373        C374   1.405       .  A
C373        C378   1.406       .  A
C373        H383   1.083       .  S
C374        C379   1.483       .  S
C374        C375   1.402       .  A
C375        C376   1.399       .  A
C375        F380   1.358       .  S
C376        C377   1.411       .  A
C376        H381   1.083       .  S
C377        C378   1.412       .  A
C378        F382   1.357       .  S
C379        C384   1.402       .  A
C379        C388   1.406       .  A
C384        C385   1.397       .  A
C384        F389   1.357       .  S
C385        C386   1.408       .  A
C385        H390   1.083       .  S
C386        C387   1.410       .  A
C387        C388   1.406       .  A
C387        F391   1.357       .  S
C388        H392   1.083       .  S
C393        C394   1.403       .  A
C393        C398   1.403       .  A
C393        H403   1.083       .  S
C394        C399   1.480       .  S
C394        C395   1.403       .  A
C395        C396   1.397       .  A
C395        F400   1.357       .  S
C396        C397   1.408       .  A
C396        H401   1.083       .  S
C397        C398   1.412       .  A
C398        F402   1.357       .  S
C399        C404   1.402       .  A
C399        C408   1.404       .  A
C404        C405   1.396       .  A
C404        F409   1.358       .  S
C405        C406   1.409       .  A
C405        H410   1.083       .  S
C406        C407   1.411       .  A
C407        C408   1.404       .  A
C407        F411   1.357       .  S
C408        H412   1.083       .  S
C413        C414   1.405       .  A
C413        C418   1.403       .  A
C413        H423   1.083       .  S
C414        C419   1.489       .  S
C414        C415   1.406       .  A
C415        C416   1.399       .  A
C415        F420   1.358       .  S
C416        C417   1.408       .  A
C416        H421   1.083       .  S
C417        C418   1.411       .  A
C418        F422   1.357       .  S
C419        C424   1.406       .  A
C419        C428   1.406       .  A
C424        C425   1.397       .  A
C424        F429   1.357       .  S
C425        C426   1.407       .  A
C425        H430   1.083       .  S
C426        C427   1.412       .  A
C427        C428   1.405       .  A
C427        F431   1.357       .  S
C428        H432   1.083       .  S
C433        C434   1.405   1_556  A
C433        C438   1.399       .  A
C433        H443   1.083       .  S
C434        C439   1.487       .  S
C434        C435   1.407       .  A
C435        C436   1.401       .  A
C435        F440   1.358       .  S
C436        C437   1.407   1_554  A
C436        H441   1.083       .  S
C437        C438   1.409       .  A
C438        F442   1.357       .  S
C439        C444   1.406       .  A
C439        C448   1.407       .  A
C444        C445   1.393       .  A
C444        F449   1.358       .  S
C445        C446   1.406       .  A
C445        H450   1.083       .  S
C446        C447   1.410       .  A
C447        C448   1.405       .  A
C447        F451   1.357       .  S
C448        H452   1.083       .  S
C453        C454   1.401       .  A
C453        C458   1.397       .  A
C453        H463   1.084       .  S
C454        C459   1.481       .  S
C454        C455   1.407       .  A
C455        C456   1.400       .  A
C455        F460   1.357   1_655  S
C456        C457   1.405       .  A
C456        H461   1.083   1_655  S
C457        C458   1.413       .  A
C458        F462   1.358       .  S
C459        C464   1.403   1_655  A
C459        C468   1.406       .  A
C464        C465   1.394       .  A
C464        F469   1.358       .  S
C465        C466   1.408   1_455  A
C465        H470   1.083       .  S
C466        C467   1.408       .  A
C467        C468   1.403       .  A
C467        F471   1.357       .  S
C468        H472   1.083       .  S
C473        C474   1.401   1_455  A
C473        C478   1.396       .  A
C473        H483   1.084       .  S
C474        C479   1.482   1_554  S
C474        C475   1.407       .  A
C475        C476   1.403       .  A
C475        F480   1.357       .  S
C476        C477   1.408   1_655  A
C476        H481   1.083       .  S
C477        C478   1.412       .  A
C478        F482   1.357       .  S
C479        C484   1.408       .  A
C479        C488   1.401       .  A
C484        C485   1.402       .  A
C484        F489   1.357   1_655  S
C485        C486   1.405       .  A
C485        H490   1.083       .  S
C486        C487   1.412       .  A
C487        C488   1.397       .  A
C487        F491   1.358       .  S
C488        H492   1.084       .  S
C493        C494   1.400       .  A
C493        C498   1.393       .  A
C493        H503   1.084       .  S
C494        C499   1.483       .  S
C494        C495   1.407       .  A
C495        C496   1.405       .  A
C495        F500   1.357       .  S
C496        C497   1.409       .  A
C496        H501   1.083       .  S
C497        C498   1.412       .  A
C498        F502   1.358       .  S
C499        C504   1.405       .  A
C499        C508   1.404       .  A
C504        C505   1.396       .  A
C504        F509   1.358       .  S
C505        C506   1.407       .  A
C505        H510   1.083       .  S
C506        C507   1.412       .  A
C507        C508   1.403       .  A
C507        F511   1.357       .  S
C508        H512   1.083       .  S
C513        C514   1.403       .  A
C513        C518   1.397       .  A
C513        H523   1.083       .  S
C514        C519   1.492       .  S
C514        C515   1.411       .  A
C515        C516   1.406       .  A
C515        F520   1.357       .  S
C516        C517   1.408       .  A
C516        H521   1.083       .  S
C517        C518   1.411       .  A
C518        F522   1.357       .  S
C519        C524   1.410       .  A
C519        C528   1.403       .  A
C524        C525   1.403       .  A
C524        F529   1.358       .  S
C525        C526   1.405       .  A
C525        H530   1.083       .  S
C526        C527   1.413       .  A
C527        C528   1.401       .  A
C527        F531   1.357       .  S
C528        H532   1.083       .  S
C533        C534   1.401       .  A
C533        C538   1.393       .  A
C533        H543   1.084       .  S
C534        C539   1.480       .  S
C534        C535   1.409       .  A
C535        C536   1.403       .  A
C535        F540   1.357       .  S
C536        C537   1.403       .  A
C536        H541   1.083       .  S
C537        C538   1.403       .  A
C538        F542   1.355       .  S
C539        C544   1.405       .  A
C539        C548   1.405       .  A
C544        C545   1.395       .  A
C544        F549   1.358       .  S
C545        C546   1.407       .  A
C545        H550   1.083       .  S
C546        C547   1.410       .  A
C547        C548   1.402       .  A
C547        F551   1.357       .  S
C548        H552   1.083       .  S
C553        C554   1.405       .  A
C553        C558   1.403       .  A
C553        H563   1.083       .  S
C554        C559   1.482       .  S
C554        C555   1.404       .  A
C555        C556   1.392       .  A
C555        F560   1.358       .  S
C556        C557   1.406       .  A
C556        H561   1.083       .  S
C557        C558   1.411       .  A
C558        F562   1.357       .  S
C559        C564   1.406       .  A
C559        C568   1.402       .  A
C564        C565   1.402       .  A
C564        F569   1.357       .  S
C565        C566   1.409       .  A
C565        H570   1.083       .  S
C566        C567   1.409       .  A
C567        C568   1.392       .  A
C567        F571   1.356       .  S
C568        H572   1.084       .  S
C573        C574   1.405       .  A
C573        C578   1.397       .  A
C573        H583   1.083       .  S
C574        C579   1.486       .  S
C574        C575   1.405       .  A
C575        C576   1.402       .  A
C575        F580   1.357       .  S
C576        C577   1.410       .  A
C576        H581   1.083       .  S
C577        C578   1.409       .  A
C578        F582   1.357       .  S
C579        C584   1.404   1_556  A
C579        C588   1.408   1_556  A
C584        C585   1.393       .  A
C584        F589   1.358   1_554  S
C585        C586   1.408       .  A
C585        H590   1.083       .  S
C586        C587   1.409       .  A
C587        C588   1.406       .  A
C587        F591   1.357       .  S
C588        H592   1.083       .  S
C593        C594   1.403       .  A
C593        C598   1.396       .  A
C593        H603   1.083       .  S
C594        C599   1.485       .  S
C594        C595   1.406       .  A
C595        C596   1.403       .  A
C595        F600   1.357       .  S
C596        C597   1.408       .  A
C596        H601   1.083       .  S
C597        C598   1.409       .  A
C598        F602   1.358       .  S
C599        C604   1.403       .  A
C599        C608   1.406       .  A
C604        C605   1.394       .  A
C604        F609   1.358       .  S
C605        C606   1.408       .  A
C605        H610   1.083       .  S
C606        C607   1.410       .  A
C607        C608   1.405       .  A
C607        F611   1.357       .  S
C608        H612   1.083       .  S
C613        C614   1.405       .  A
C613        C618   1.402       .  A
C613        H623   1.083       .  S
C614        C619   1.486       .  S
C614        C615   1.406       .  A
C615        C616   1.397       .  A
C615        F620   1.358       .  S
C616        C617   1.407       .  A
C616        H621   1.083       .  S
C617        C618   1.410       .  A
C618        F622   1.357       .  S
C619        C624   1.406       .  A
C619        C628   1.404       .  A
C624        C625   1.401       .  A
C624        F629   1.358       .  S
C625        C626   1.409       .  A
C625        H630   1.083       .  S
C626        C627   1.409       .  A
C627        C628   1.398       .  A
C627        F631   1.357       .  S
C628        H632   1.083       .  S
C633        C634   1.405       .  A
C633        C638   1.390       .  A
C633        H643   1.083       .  S
C634        C639   1.481       .  S
C634        C635   1.408       .  A
C635        C636   1.398       .  A
C635        F640   1.358       .  S
C636        C637   1.406       .  A
C636        H641   1.083       .  S
C637        C638   1.406       .  A
C638        F642   1.358       .  S
C639        C644   1.408   1_554  A
C639        C648   1.405       .  A
C644        C645   1.396       .  A
C644        F649   1.358       .  S
C645        C646   1.405       .  A
C645        H650   1.083       .  S
C646        C647   1.408   1_556  A
C647        C648   1.393       .  A
C647        F651   1.358       .  S
C648        H652   1.082       .  S
C653        C654   1.406       .  A
C653        C658   1.405       .  A
C653        H663   1.083       .  S
C654        C659   1.486       .  S
C654        C655   1.403       .  A
C655        C656   1.397       .  A
C655        F660   1.358       .  S
C656        C657   1.409       .  A
C656        H661   1.083       .  S
C657        C658   1.410       .  A
C658        F662   1.357       .  S
C659        C664   1.405       .  A
C659        C668   1.403       .  A
C664        C665   1.403       .  A
C664        F669   1.357       .  S
C665        C666   1.408       .  A
C665        H670   1.083       .  S
C666        C667   1.411       .  A
C667        C668   1.400       .  A
C667        F671   1.357       .  S
C668        H672   1.083       .  S
C673        C674   1.405       .  A
C673        C678   1.402       .  A
C673        H683   1.083       .  S
C674        C679   1.484       .  S
C674        C675   1.406       .  A
C675        C676   1.396       .  A
C675        F680   1.358       .  S
C676        C677   1.407       .  A
C676        H681   1.083       .  S
C677        C678   1.410       .  A
C678        F682   1.357       .  S
C679        C684   1.406       .  A
C679        C688   1.403       .  A
C684        C685   1.400       .  A
C684        F689   1.357       .  S
C685        C686   1.407       .  A
C685        H690   1.083       .  S
C686        C687   1.411       .  A
C687        C688   1.397       .  A
C687        F691   1.358       .  S
C688        H692   1.083       .  S
C693        C694   1.407   1_545  A
C693        C698   1.403       .  A
C693        H703   1.083       .  S
C694        C699   1.486       .  S
C694        C695   1.404       .  A
C695        C696   1.399       .  A
C695        F700   1.358       .  S
C696        C697   1.408       .  A
C696        H701   1.083       .  S
C697        C698   1.407   1_565  A
C698        F702   1.357       .  S
C699        C704   1.403       .  A
C699        C708   1.407       .  A
C704        C705   1.396       .  A
C704        F709   1.358       .  S
C705        C706   1.410       .  A
C705        H710   1.083       .  S
C706        C707   1.410       .  A
C707        C708   1.406       .  A
C707        F711   1.357       .  S
C708        H712   1.083       .  S
C713        C714   1.404       .  A
C713        C718   1.398       .  A
C713        H723   1.083       .  S
C714        C719   1.489       .  S
C714        C715   1.410   1_565  A
C715        C716   1.403       .  A
C715        F720   1.357       .  S
C716        C717   1.405   1_545  A
C716        H721   1.083       .  S
C717        C718   1.409       .  A
C718        F722   1.358       .  S
C719        C724   1.406       .  A
C719        C728   1.407       .  A
C724        C725   1.396       .  A
C724        F729   1.357   1_565  S
C725        C726   1.406       .  A
C725        H730   1.083       .  S
C726        C727   1.411       .  A
C727        C728   1.403       .  A
C727        F731   1.358       .  S
C728        H732   1.083       .  S
C733        C734   1.401       .  A
C733        C738   1.400       .  A
C733        H743   1.083       .  S
C734        C739   1.471       .  S
C734        C735   1.401       .  A
C735        C736   1.395       .  A
C735        F740   1.358       .  S
C736        C737   1.408       .  A
C736        H741   1.083       .  S
C737        C738   1.410       .  A
C738        F742   1.357       .  S
C739        C744   1.399       .  A
C739        C748   1.404       .  A
C744        C745   1.393       .  A
C744        F749   1.358       .  S
C745        C746   1.408       .  A
C745        H750   1.083       .  S
C746        C747   1.409       .  A
C747        C748   1.402       .  A
C747        F751   1.357       .  S
C748        H752   1.083       .  S
C753        C754   1.411       .  A
C753        C758   1.408       .  A
C753        H763   1.083       .  S
C754        C759   1.497       .  S
C754        C755   1.409       .  A
C755        C756   1.394       .  A
C755        F760   1.358       .  S
C756        C757   1.406       .  A
C756        H761   1.084       .  S
C757        C758   1.407       .  A
C758        F762   1.357       .  S
C759        C764   1.412       .  A
C759        C768   1.409       .  A
C764        C765   1.404       .  A
C764        F769   1.357       .  S
C765        C766   1.402       .  A
C765        H770   1.083       .  S
C766        C767   1.403       .  A
C767        C768   1.400       .  A
C767        F771   1.358       .  S
C768        H772   1.083       .  S
C773        C774   1.407       .  A
C773        C778   1.398       .  A
C773        H783   1.084       .  S
C774        C779   1.490       .  S
C774        C775   1.409       .  A
C775        C776   1.402       .  A
C775        F780   1.357       .  S
C776        C777   1.402       .  A
C776        H781   1.084       .  S
C777        C778   1.404       .  A
C778        F782   1.358       .  S
C779        C784   1.406       .  A
C779        C788   1.409       .  A
C784        C785   1.392       .  A
C784        F789   1.358       .  S
C785        C786   1.408       .  A
C785        H790   1.083       .  S
C786        C787   1.408       .  A
C787        C788   1.408       .  A
C787        F791   1.356       .  S
C788        H792   1.083       .  S
C793        C794   1.405       .  A
C793        C798   1.404       .  A
C793        H803   1.083       .  S
C794        C799   1.484       .  S
C794        C795   1.403       .  A
C795        C796   1.399       .  A
C795        F800   1.358       .  S
C796        C797   1.410   1_554  A
C796        H801   1.083       .  S
C797        C798   1.410   1_556  A
C798        F802   1.357       .  S
C799        C804   1.407       .  A
C799        C808   1.401       .  A
C804        C805   1.404       .  A
C804        F809   1.357       .  S
C805        C806   1.407       .  A
C805        H810   1.083       .  S
C806        C807   1.412       .  A
C807        C808   1.398       .  A
C807        F811   1.358       .  S
C808        H812   1.083       .  S
C813        C814   1.407       .  A
C813        C818   1.404       .  A
C813        H823   1.083       .  S
C814        C819   1.487       .  S
C814        C815   1.406       .  A
C815        C816   1.396       .  A
C815        F820   1.358       .  S
C816        C817   1.407       .  A
C816        H821   1.083       .  S
C817        C818   1.410       .  A
C818        F822   1.357       .  S
C819        C824   1.407       .  A
C819        C828   1.406       .  A
C824        C825   1.400       .  A
C824        F829   1.358       .  S
C825        C826   1.407       .  A
C825        H830   1.083       .  S
C826        C827   1.407       .  A
C827        C828   1.400       .  A
C827        F831   1.357       .  S
C828        H832   1.083       .  S
C833        C834   1.408       .  A
C833        C838   1.404       .  A
C833        H843   1.083       .  S
C834        C839   1.492       .  S
C834        C835   1.410       .  A
C835        C836   1.398       .  A
C835        F840   1.358       .  S
C836        C837   1.401       .  A
C836        H841   1.084       .  S
C837        C838   1.405       .  A
C838        F842   1.357       .  S
C839        C844   1.410       .  A
C839        C848   1.403       .  A
C844        C845   1.409       .  A
C844        F849   1.357       .  S
C845        C846   1.408       .  A
C845        H850   1.083       .  S
C846        C847   1.411       .  A
C847        C848   1.392       .  A
C847        F851   1.358       .  S
C848        H852   1.083       .  S
C853        C854   1.407       .  A
C853        C858   1.408       .  A
C853        H863   1.083       .  S
C854        C859   1.492       .  S
C854        C855   1.406       .  A
C855        C856   1.397       .  A
C855        F860   1.358       .  S
C856        C857   1.408       .  A
C856        H861   1.083       .  S
C857        C858   1.413       .  A
C858        F862   1.357       .  S
C859        C864   1.410       .  A
C859        C868   1.402       .  A
C864        C865   1.409       .  A
C864        F869   1.357       .  S
C865        C866   1.410       .  A
C865        H870   1.083       .  S
C866        C867   1.412       .  A
C867        C868   1.395       .  A
C867        F871   1.357       .  S
C868        H872   1.083       .  S
C873        C874   1.404       .  A
C873        C878   1.394       .  A
C873        H883   1.084       .  S
C874        C879   1.486       .  S
C874        C875   1.409       .  A
C875        C876   1.404       .  A
C875        F880   1.357       .  S
C876        C877   1.403       .  A
C876        H881   1.083       .  S
C877        C878   1.405       .  A
C878        F882   1.358       .  S
C879        C884   1.405       .  A
C879        C888   1.407       .  A
C884        C885   1.390       .  A
C884        F889   1.359       .  S
C885        C886   1.408       .  A
C885        H890   1.083       .  S
C886        C887   1.410       .  A
C887        C888   1.407       .  A
C887        F891   1.356       .  S
C888        H892   1.083       .  S
C893        C894   1.408       .  A
C893        C898   1.406       .  A
C893        H903   1.083       .  S
C894        C899   1.490       .  S
C894        C895   1.406       .  A
C895        C896   1.395       .  A
C895        F900   1.358       .  S
C896        C897   1.407       .  A
C896        H901   1.083       .  S
C897        C898   1.411       .  A
C898        F902   1.357       .  S
C899        C904   1.408       .  A
C899        C908   1.404       .  A
C904        C905   1.404       .  A
C904        F909   1.357       .  S
C905        C906   1.410       .  A
C905        H910   1.083       .  S
C906        C907   1.410       .  A
C907        C908   1.397       .  A
C907        F911   1.357       .  S
C908        H912   1.083       .  S
C913        C914   1.402       .  A
C913        C918   1.398       .  A
C913        H923   1.084       .  S
C914        C919   1.476       .  S
C914        C915   1.404       .  A
C915        C916   1.396       .  A
C915        F920   1.358       .  S
C916        C917   1.406       .  A
C916        H921   1.083       .  S
C917        C918   1.411       .  A
C918        F922   1.358       .  S
C919        C924   1.403       .  A
C919        C928   1.404   1_554  A
C924        C925   1.390       .  A
C924        F929   1.358       .  S
C925        C926   1.405   1_554  A
C925        H930   1.084       .  S
C926        C927   1.411       .  A
C927        C928   1.402       .  A
C927        F931   1.357       .  S
C928        H932   1.084       .  S
C933        C934   1.404   1_544  A
C933        C938   1.400       .  A
C933        H943   1.083       .  S
C934        C939   1.487       .  S
C934        C935   1.409   1_556  A
C935        C936   1.400       .  A
C935        F940   1.357   1_554  S
C936        C937   1.404   1_565  A
C936        H941   1.083       .  S
C937        C938   1.408       .  A
C938        F942   1.358       .  S
C939        C944   1.404       .  A
C939        C948   1.407       .  A
C944        C945   1.395       .  A
C944        F949   1.358       .  S
C945        C946   1.407       .  A
C945        H950   1.083       .  S
C946        C947   1.412       .  A
C947        C948   1.406       .  A
C947        F951   1.357       .  S
C948        H952   1.083       .  S
C953        C954   1.400       .  A
C953        C958   1.397       .  A
C953        H963   1.084       .  S
C954        C959   1.480       .  S
C954        C955   1.408       .  A
C955        C956   1.401       .  A
C955        F960   1.357   1_565  S
C956        C957   1.404       .  A
C956        H961   1.083   1_565  S
C957        C958   1.412       .  A
C958        F962   1.358       .  S
C959        C964   1.408       .  A
C959        C968   1.398   1_565  A
C964        C965   1.405       .  A
C964        F969   1.357       .  S
C965        C966   1.408   1_565  A
C965        H970   1.083       .  S
C966        C967   1.414       .  A
C967        C968   1.391       .  A
C967        F971   1.358       .  S
C968        H972   1.084       .  S
C973        C974   1.410       .  A
C973        C978   1.412       .  A
C973        H983   1.083       .  S
C974        C979   1.497       .  S
C974        C975   1.407       .  A
C975        C976   1.395       .  A
C975        F980   1.358       .  S
C976        C977   1.407       .  A
C976        H981   1.083       .  S
C977        C978   1.411       .  A
C978        F982   1.357       .  S
C979        C984   1.410       .  A
C979        C988   1.408       .  A
C984        C985   1.401       .  A
C984        F989   1.358       .  S
C985        C986   1.403       .  A
C985        H990   1.083       .  S
C986        C987   1.407       .  A
C987        C988   1.407       .  A
C987        F991   1.357       .  S
C988        H992   1.083       .  S
C993        C994   1.400       .  A
C993        C998   1.394       .  A
C993       H1003   1.083       .  S
C994        C999   1.478       .  S
C994        C995   1.406       .  A
C995        C996   1.400       .  A
C995       F1000   1.357       .  S
C996        C997   1.406       .  A
C996       H1001   1.083       .  S
C997        C998   1.413       .  A
C998       F1002   1.358       .  S
C999       C1004   1.405       .  A
C999       C1008   1.401       .  A
C1004      C1005   1.399       .  A
C1004      F1009   1.357       .  S
C1005      C1006   1.407       .  A
C1005      H1010   1.083       .  S
C1006      C1007   1.411       .  A
C1007      C1008   1.394       .  A
C1007      F1011   1.358       .  S
C1008      H1012   1.083       .  S
C1013      C1014   1.407       .  A
C1013      C1018   1.398       .  A
C1013      H1023   1.083       .  S
C1014      C1019   1.490       .  S
C1014      C1015   1.411       .  A
C1015      C1016   1.402       .  A
C1015      F1020   1.357       .  S
C1016      C1017   1.402       .  A
C1016      H1021   1.084       .  S
C1017      C1018   1.403       .  A
C1018      F1022   1.358       .  S
C1019      C1024   1.410       .  A
C1019      C1028   1.403       .  A
C1024      C1025   1.407       .  A
C1024      F1029   1.357       .  S
C1025      C1026   1.407       .  A
C1025      H1030   1.083       .  S
C1026      C1027   1.411       .  A
C1027      C1028   1.393       .  A
C1027      F1031   1.358       .  S
C1028      H1032   1.083       .  S
C1033      C1034   1.405       .  A
C1033      C1038   1.402       .  A
C1033      H1043   1.083       .  S
C1034      C1039   1.481       .  S
C1034      C1035   1.403       .  A
C1035      C1036   1.394       .  A
C1035      F1040   1.358       .  S
C1036      C1037   1.409       .  A
C1036      H1041   1.083       .  S
C1037      C1038   1.409       .  A
C1038      F1042   1.357       .  S
C1039      C1044   1.405       .  A
C1039      C1048   1.404       .  A
C1044      C1045   1.395       .  A
C1044      F1049   1.358       .  S
C1045      C1046   1.406       .  A
C1045      H1050   1.083       .  S
C1046      C1047   1.409       .  A
C1047      C1048   1.400       .  A
C1047      F1051   1.357       .  S
C1048      H1052   1.083       .  S
C1053      C1054   1.404       .  A
C1053      C1058   1.400       .  A
C1053      H1063   1.083       .  S
C1054      C1059   1.483       .  S
C1054      C1055   1.406       .  A
C1055      C1056   1.397       .  A
C1055      F1060   1.357       .  S
C1056      C1057   1.405       .  A
C1056      H1061   1.083       .  S
C1057      C1058   1.411       .  A
C1058      F1062   1.358       .  S
C1059      C1064   1.406       .  A
C1059      C1068   1.403       .  A
C1064      C1065   1.398       .  A
C1064      F1069   1.358       .  S
C1065      C1066   1.408       .  A
C1065      H1070   1.083       .  S
C1066      C1067   1.411       .  A
C1067      C1068   1.400       .  A
C1067      F1071   1.357       .  S
C1068      H1072   1.083       .  S
C1073      C1074   1.406       .  A
C1073      C1078   1.404       .  A
C1073      H1083   1.083       .  S
C1074      C1079   1.485       .  S
C1074      C1075   1.404       .  A
C1075      C1076   1.396       .  A
C1075      F1080   1.358       .  S
C1076      C1077   1.408       .  A
C1076      H1081   1.083       .  S
C1077      C1078   1.410       .  A
C1078      F1082   1.357       .  S
C1079      C1084   1.408   1_655  A
C1079      C1088   1.403       .  A
C1084      C1085   1.401   1_455  A
C1084      F1089   1.357       .  S
C1085      C1086   1.405   1_554  A
C1085      H1090   1.083   1_654  S
C1086      C1087   1.409   1_556  A
C1087      C1088   1.398       .  A
C1087      F1091   1.358   1_554  S
C1088      H1092   1.083       .  S
C1093      C1094   1.409   1_455  A
C1093      C1098   1.406       .  A
C1093      H1103   1.083       .  S
C1094      C1099   1.490       .  S
C1094      C1095   1.406       .  A
C1095      C1096   1.393       .  A
C1095      F1100   1.358       .  S
C1096      C1097   1.406       .  A
C1096      H1101   1.083       .  S
C1097      C1098   1.408   1_655  A
C1098      F1102   1.357       .  S
C1099      C1104   1.406       .  A
C1099      C1108   1.407       .  A
C1104      C1105   1.399       .  A
C1104      F1109   1.358       .  S
C1105      C1106   1.409       .  A
C1105      H1110   1.083       .  S
C1106      C1107   1.407       .  A
C1107      C1108   1.400       .  A
C1107      F1111   1.357       .  S
C1108      H1112   1.083       .  S
C1113      C1114   1.407       .  A
C1113      C1118   1.398       .  A
C1113      H1123   1.083       .  S
C1114      C1119   1.493       .  S
C1114      C1115   1.410       .  A
C1115      C1116   1.405       .  A
C1115      F1120   1.357       .  S
C1116      C1117   1.404       .  A
C1116      H1121   1.084       .  S
C1117      C1118   1.404       .  A
C1118      F1122   1.358       .  S
C1119      C1124   1.407       .  A
C1119      C1128   1.409       .  A
C1124      C1125   1.394       .  A
C1124      F1129   1.358       .  S
C1125      C1126   1.406       .  A
C1125      H1130   1.083       .  S
C1126      C1127   1.411       .  A
C1127      C1128   1.410       .  A
C1127      F1131   1.357       .  S
C1128      H1132   1.083       .  S
C1133      C1134   1.401       .  A
C1133      C1138   1.396       .  A
C1133      H1143   1.083       .  S
C1134      C1139   1.479       .  S
C1134      C1135   1.405       .  A
C1135      C1136   1.400       .  A
C1135      F1140   1.357       .  S
C1136      C1137   1.407       .  A
C1136      H1141   1.083       .  S
C1137      C1138   1.412       .  A
C1138      F1142   1.358       .  S
C1139      C1144   1.405       .  A
C1139      C1148   1.401       .  A
C1144      C1145   1.401       .  A
C1144      F1149   1.358       .  S
C1145      C1146   1.409       .  A
C1145      H1150   1.083       .  S
C1146      C1147   1.410       .  A
C1147      C1148   1.395       .  A
C1147      F1151   1.357       .  S
C1148      H1152   1.083       .  S
C1153      C1154   1.405       .  A
C1153      C1158   1.402       .  A
C1153      H1163   1.083       .  S
C1154      C1159   1.487       .  S
C1154      C1155   1.407       .  A
C1155      C1156   1.398       .  A
C1155      F1160   1.358       .  S
C1156      C1157   1.406       .  A
C1156      H1161   1.083       .  S
C1157      C1158   1.410       .  A
C1158      F1162   1.357       .  S
C1159      C1164   1.408       .  A
C1159      C1168   1.402       .  A
C1164      C1165   1.403       .  A
C1164      F1169   1.358       .  S
C1165      C1166   1.408       .  A
C1165      H1170   1.083       .  S
C1166      C1167   1.412       .  A
C1167      C1168   1.397       .  A
C1167      F1171   1.357       .  S
C1168      H1172   1.083       .  S
C1173      C1174   1.405   1_556  A
C1173      C1178   1.397       .  A
C1173      H1183   1.083       .  S
C1174      C1179   1.482       .  S
C1174      C1175   1.408       .  A
C1175      C1176   1.394       .  A
C1175      F1180   1.357       .  S
C1176      C1177   1.405   1_554  A
C1176      H1181   1.083       .  S
C1177      C1178   1.409       .  A
C1178      F1182   1.358       .  S
C1179      C1184   1.407       .  A
C1179      C1188   1.404       .  A
C1184      C1185   1.399       .  A
C1184      F1189   1.357       .  S
C1185      C1186   1.406       .  A
C1185      H1190   1.083       .  S
C1186      C1187   1.408       .  A
C1187      C1188   1.393       .  A
C1187      F1191   1.358       .  S
C1188      H1192   1.083       .  S
C1193      C1194   1.413       .  A
C1193      C1198   1.411       .  A
C1193      H1203   1.083       .  S
C1194      C1199   1.500       .  S
C1194      C1195   1.409       .  A
C1195      C1196   1.394       .  A
C1195      F1200   1.357       .  S
C1196      C1197   1.405       .  A
C1196      H1201   1.084       .  S
C1197      C1198   1.407       .  A
C1198      F1202   1.357       .  S
C1199      C1204   1.413       .  A
C1199      C1208   1.409       .  A
C1204      C1205   1.402       .  A
C1204      F1209   1.358       .  S
C1205      C1206   1.402       .  A
C1205      H1210   1.084       .  S
C1206      C1207   1.404       .  A
C1207      C1208   1.404       .  A
C1207      F1211   1.357       .  S
C1208      H1212   1.083       .  S
C1213      C1214   1.407       .  A
C1213      C1218   1.398       .  A
C1213      H1223   1.083       .  S
C1214      C1219   1.490       .  S
C1214      C1215   1.407       .  A
C1215      C1216   1.399       .  A
C1215      F1220   1.357       .  S
C1216      C1217   1.407       .  A
C1216      H1221   1.083       .  S
C1217      C1218   1.408       .  A
C1218      F1222   1.358       .  S
C1219      C1224   1.407       .  A
C1219      C1228   1.410       .  A
C1224      C1225   1.394       .  A
C1224      F1229   1.358       .  S
C1225      C1226   1.405       .  A
C1225      H1230   1.084       .  S
C1226      C1227   1.405       .  A
C1227      C1228   1.405       .  A
C1227      F1231   1.357       .  S
C1228      H1232   1.082       .  S
C1233      C1234   1.404       .  A
C1233      C1238   1.398       .  A
C1233      H1243   1.083       .  S
C1234      C1239   1.484       .  S
C1234      C1235   1.409       .  A
C1235      C1236   1.402       .  A
C1235      F1240   1.357       .  S
C1236      C1237   1.402       .  A
C1236      H1241   1.083       .  S
C1237      C1238   1.404       .  A
C1238      F1242   1.356       .  S
C1239      C1244   1.406       .  A
C1239      C1248   1.403       .  A
C1244      C1245   1.404       .  A
C1244      F1249   1.357       .  S
C1245      C1246   1.409       .  A
C1245      H1250   1.083       .  S
C1246      C1247   1.411       .  A
C1247      C1248   1.395       .  A
C1247      F1251   1.358       .  S
C1248      H1252   1.083       .  S
C1253      C1254   1.405       .  A
C1253      C1258   1.403       .  A
C1253      H1263   1.083       .  S
C1254      C1259   1.488       .  S
C1254      C1255   1.404       .  A
C1255      C1256   1.401       .  A
C1255      F1260   1.357       .  S
C1256      C1257   1.410       .  A
C1256      H1261   1.083       .  S
C1257      C1258   1.411       .  A
C1258      F1262   1.357       .  S
C1259      C1264   1.408       .  A
C1259      C1268   1.402       .  A
C1264      C1265   1.405       .  A
C1264      F1269   1.357       .  S
C1265      C1266   1.408       .  A
C1265      H1270   1.083       .  S
C1266      C1267   1.414       .  A
C1267      C1268   1.399       .  A
C1267      F1271   1.358       .  S
C1268      H1272   1.084       .  S
C1273      C1274   1.408       .  A
C1273      C1278   1.400       .  A
C1273      H1283   1.083       .  S
C1274      C1279   1.491       .  S
C1274      C1275   1.408       .  A
C1275      C1276   1.399       .  A
C1275      F1280   1.357       .  S
C1276      C1277   1.406       .  A
C1276      H1281   1.083       .  S
C1277      C1278   1.407       .  A
C1278      F1282   1.358       .  S
C1279      C1284   1.409   1_556  A
C1279      C1288   1.409   1_556  A
C1284      C1285   1.398       .  A
C1284      F1289   1.357       .  S
C1285      C1286   1.401       .  A
C1285      H1290   1.084       .  S
C1286      C1287   1.402       .  A
C1287      C1288   1.401       .  A
C1287      F1291   1.357       .  S
C1288      H1292   1.083   1_554  S
C1293      C1294   1.405       .  A
C1293      C1298   1.394       .  A
C1293      H1303   1.083       .  S
C1294      C1299   1.492       .  S
C1294      C1295   1.411       .  A
C1295      C1296   1.406       .  A
C1295      F1300   1.357       .  S
C1296      C1297   1.405       .  A
C1296      H1301   1.083       .  S
C1297      C1298   1.408       .  A
C1298      F1302   1.359       .  S
C1299      C1304   1.410       .  A
C1299      C1308   1.408       .  A
C1304      C1305   1.395       .  A
C1304      F1309   1.358       .  S
C1305      C1306   1.401       .  A
C1305      H1310   1.081       .  S
C1306      C1307   1.408       .  A
C1307      C1308   1.405       .  A
C1307      F1311   1.357       .  S
C1308      H1312   1.083       .  S
