geometry optimzed in LAMMPS
_audit_creation_date              2020-11-30 
_audit_creation_method            'lammps2cif' 
_symmetry_space_group_name_H-M    'P1' 
_symmetry_Int_Tables_number       1 
_symmetry_cell_setting            triclinic 
loop_ 
_symmetry_equiv_pos_as_xyz 
  x,y,z 
_cell_length_a                    35.25123092 
_cell_length_b                    34.97117243941269 
_cell_length_c                    98.53686933920409 
_cell_angle_alpha                 89.7357967918135 
_cell_angle_beta                  90.23195772690497 
_cell_angle_gamma                 120.89726765845307 
loop_ 
_atom_site_label 
_atom_site_type_symbol 
_atom_site_fract_x 
_atom_site_fract_y 
_atom_site_fract_z 
_atom_site_charge 
N1          N  0.73993366  0.18555732  0.22407576    -0.27200
N2          N  0.72985676  0.17075376  0.23669767    -0.35000
C3          C  0.69007129  0.16491281  0.23978584     0.01200
C4          C  0.67450550  0.17721640  0.22866464     0.07200
C5          C  0.70710573  0.19020182  0.21890160    -0.05900
H6          H  0.67388664  0.15305235  0.24948037     0.07900
H7          H  0.70708150  0.20230747  0.20879234     0.09100
Cu8        Cu  0.77197955  0.16274877  0.24968543     0.44200
Cu9        Cu  0.79693890  0.19703212  0.21417858     0.42000
Cu10       Cu  0.87135491  0.17817732  0.23454553     0.43900
N11         N  0.82428665  0.16728087  0.26089138    -0.34500
N12         N  0.86078296  0.17295672  0.25524566    -0.28800
C13         C  0.89050504  0.18019533  0.26500736    -0.04900
C14         C  0.87187245  0.17916464  0.27741821     0.07300
C15         C  0.82984491  0.17078939  0.27444539     0.01100
H16         H  0.92402845  0.18834640  0.26315777     0.08800
H17         H  0.80625236  0.17025261  0.28153514     0.07800
N18         N  0.87951040  0.19145092  0.21397490    -0.36000
N19         N  0.85307939  0.19945804  0.20649967    -0.28200
C20         C  0.86911332  0.20938959  0.19376939    -0.03400
C21         C  0.90719649  0.20724341  0.19329805     0.05200
C22         C  0.91294422  0.19599749  0.20625633     0.03300
H23         H  0.85471737  0.21842268  0.18556702     0.08400
H24         H  0.94009776  0.19274009  0.20990803     0.07200
N25         N  0.95199709  0.40461448  0.42674681    -0.27200
N26         N  0.96948326  0.41679583  0.41450741    -0.35000
C27         C  0.97502269  0.45689172  0.41152423     0.01200
C28         C  0.95988953  0.47056962  0.42232378     0.07200
C29         C  0.94552121  0.43654072  0.43181716    -0.05900
H30         H  0.98819917  0.47439725  0.40204329     0.07900
H31         H  0.93077173  0.43475041  0.44157460     0.09100
Cu32       Cu  0.98104912  0.37671762  0.40176775     0.44200
Cu33       Cu  0.93794673  0.34492754  0.43579004     0.42000
Cu34       Cu  0.95581936  0.26998216  0.41451204     0.43900
N35         N  0.97999476  0.32770591  0.38967189    -0.34500
N36         N  0.97025831  0.28816783  0.39430726    -0.28800
C37         C  0.96588605  0.26185564  0.38375334    -0.04900
C38         C  0.97326292  0.28609723  0.37191630     0.07300
C39         C  0.98211308  0.32766718  0.37604938     0.01100
H40         H  0.95471636  0.22683490  0.38456259     0.08800
H41         H  0.98611381  0.35451444  0.36959654     0.07800
N42         N  0.93773093  0.25836083  0.43476976    -0.36000
N43         N  0.93091746  0.28516085  0.44248372    -0.28200
C44         C  0.91924552  0.26731719  0.45499612    -0.03400
C45         C  0.91871603  0.22755413  0.45507764     0.05200
C46         C  0.93046815  0.22278933  0.44213836     0.03300
H47         H  0.91149652  0.28205351  0.46336915     0.08400
H48         H  0.93328349  0.19540311  0.43833719     0.07200
N49         N  0.31199459  0.14392100  0.22050676    -0.27200
N50         N  0.31265655  0.14172597  0.23390203    -0.35000
C51         C  0.35191183  0.14798315  0.23792182     0.01200
C52         C  0.37721251  0.15419692  0.22652927     0.07200
C53         C  0.35095184  0.15151517  0.21564858    -0.05900
H54         H  0.36095267  0.14694757  0.24835610     0.07900
H55         H  0.35909901  0.15369814  0.20499725     0.09100
Cu56       Cu  0.25971741  0.12762124  0.24628758     0.44200
Cu57       Cu  0.25723966  0.13449784  0.20953910     0.42000
Cu58       Cu  0.16281079  0.11463130  0.23016133     0.43900
N59         N  0.20254428  0.11119044  0.25676707    -0.34500
N60         N  0.16670264  0.10652889  0.25085338    -0.28800
C61         C  0.13443700  0.09301516  0.26016551    -0.04900
C62         C  0.15101756  0.08918942  0.27251405     0.07300
C63         C  0.19420946  0.10091720  0.27000288     0.01100
H64         H  0.10105522  0.08503449  0.25801800     0.08800
H65         H  0.21726354  0.10033216  0.27714059     0.07800
N66         N  0.16371392  0.11639665  0.20914585    -0.36000
N67         N  0.19741783  0.12280173  0.20156554    -0.28200
C68         C  0.18495261  0.11715165  0.18842736    -0.03400
C69         C  0.14152646  0.10694773  0.18779754     0.05200
C70         C  0.12910983  0.10662285  0.20107657     0.03300
H71         H  0.20516917  0.11810202  0.18005387     0.08400
H72         H  0.09655390  0.09743399  0.20465895     0.07200
N73         N  0.95971786  0.82048776  0.41962841    -0.27200
N74         N  0.95583449  0.81185909  0.40648446    -0.35000
C75         C  0.95316401  0.77251415  0.40452419     0.01200
C76         C  0.95566769  0.75575575  0.41703637     0.07200
C77         C  0.95972312  0.78698110  0.42638977    -0.05900
H78         H  0.95150022  0.75810165  0.39469280     0.07900
H79         H  0.96434329  0.78637251  0.43722667     0.09100
Cu80       Cu  0.96047293  0.85683866  0.39178125     0.44200
Cu81       Cu  0.96983054  0.87961205  0.42756465     0.42000
Cu82       Cu  0.98241295  0.96455818  0.40368441     0.43900
N83         N  0.97638697  0.91064886  0.37910398    -0.34500
N84         N  0.98447072  0.94989384  0.38343587    -0.28800
C85         C  0.99966885  0.97900387  0.37302217    -0.04900
C86         C  0.00129027  0.95703836  0.36161135     0.07300
C87         C  0.98615725  0.91376084  0.36581513     0.01100
H88         H  0.01159141  0.01416810  0.37390923     0.08800
H89         H  0.98522197  0.88735166  0.35988089     0.07800
N90         N  0.98934004  0.97383034  0.42451270    -0.36000
N91         N  0.98537596  0.94293143  0.43314454    -0.28200
C92         C  0.99664805  0.96062002  0.44562587    -0.03400
C93         C  0.00819423  0.00473745  0.44483306     0.05200
C94         C  0.00306702  0.01203846  0.43131025     0.03300
H95         H  0.99832055  0.94321494  0.45450487     0.08400
H96         H  0.01074721  0.04324033  0.42666633     0.07200
N97         N  0.29389089  0.16268441  0.75480360    -0.27200
N98         N  0.30241327  0.16582946  0.74165137    -0.35000
C99         C  0.33697330  0.16022089  0.73961769     0.01200
C100        C  0.35064232  0.15310874  0.75208102     0.07200
C101        C  0.32258847  0.15485928  0.76146933    -0.05900
H102        H  0.35096072  0.16101189  0.72980471     0.07900
H103        H  0.32280637  0.15048923  0.77232400     0.09100
Cu104      Cu  0.26593614  0.17630655  0.72701752     0.44200
Cu105      Cu  0.24405016  0.16922495  0.76333291     0.42000
Cu106      Cu  0.16783726  0.17217542  0.73996755     0.43900
N107        N  0.22168466  0.18409094  0.71499695    -0.34500
N108        N  0.18534176  0.18123018  0.71980921    -0.28800
C109        C  0.16417279  0.18872030  0.70974077    -0.04900
C110        C  0.18831918  0.19666521  0.69802260     0.07300
C111        C  0.22460723  0.19356100  0.70164979     0.01100
H112        H  0.13410045  0.18943217  0.71094268     0.08800
H113        H  0.25129363  0.19832027  0.69512740     0.07800
N114        N  0.16473028  0.17896116  0.76058648    -0.36000
N115        N  0.19365699  0.17930508  0.76921903    -0.28200
C116        C  0.18746817  0.19194011  0.78146940    -0.03400
C117        C  0.15301266  0.19993983  0.78042934     0.05200
C118        C  0.13917948  0.19111108  0.76707972     0.03300
H119        H  0.20832312  0.19770939  0.79023138     0.08400
H120        H  0.11457692  0.19627288  0.76222395     0.07200
N121        N  0.26797877  0.41249478  0.54843210    -0.27200
N122        N  0.26371534  0.42058365  0.56125667    -0.35000
C123        C  0.29882662  0.45979444  0.56491672     0.01200
C124        C  0.32665948  0.47720556  0.55389359     0.07200
C125        C  0.30612967  0.44655113  0.54357546    -0.05900
H126        H  0.30472267  0.47351175  0.57505061     0.07900
H127        H  0.31897365  0.44786915  0.53352308     0.09100
Cu128      Cu  0.21491791  0.37558351  0.57403627     0.44200
Cu129      Cu  0.22436074  0.35310705  0.53879605     0.42000
Cu130      Cu  0.14297537  0.26641874  0.56125456     0.43900
N131        N  0.17368907  0.32239751  0.58625694    -0.34500
N132        N  0.14748646  0.28167119  0.58160213    -0.28800
C133        C  0.13078130  0.25322216  0.59213485    -0.04900
C134        C  0.14737476  0.27748964  0.60394196     0.07300
C135        C  0.17441641  0.32113598  0.59986257     0.01100
H136        H  0.11101570  0.21735421  0.59123380     0.08800
H137        H  0.19596546  0.34914356  0.60623090     0.07800
N138        N  0.14882943  0.25781601  0.54083825    -0.36000
N139        N  0.17829034  0.28887426  0.53264393    -0.28200
C140        C  0.17331308  0.27151000  0.52015584    -0.03400
C141        C  0.13914177  0.22756559  0.52059075     0.05200
C142        C  0.12436584  0.22002786  0.53382043     0.03300
H143        H  0.19308163  0.28948564  0.51142722     0.08400
H144        H  0.09772216  0.18935303  0.53804180     0.07200
N145        N  0.66280166  0.09348214  0.75955823    -0.27200
N146        N  0.65257129  0.08790757  0.74649700    -0.35000
C147        C  0.61784534  0.09310255  0.74436204     0.01200
C148        C  0.60564579  0.10268149  0.75660948     0.07200
C149        C  0.63478125  0.10258225  0.76606428    -0.05900
H150        H  0.60305637  0.09093634  0.73454293     0.07900
H151        H  0.63618887  0.10962101  0.77677971     0.09100
Cu152      Cu  0.68673385  0.07577517  0.73170110     0.44200
Cu153      Cu  0.71554485  0.09024916  0.76777150     0.42000
Cu154      Cu  0.78364159  0.07702970  0.74286922     0.43900
N155        N  0.72673165  0.06532369  0.71875384    -0.34500
N156        N  0.76287133  0.06636386  0.72296658    -0.28800
C157        C  0.78156260  0.05776464  0.71248452    -0.04900
C158        C  0.75588092  0.05099498  0.70112678     0.07300
C159        C  0.72130927  0.05591883  0.70540812     0.01100
H160        H  0.81109670  0.05577173  0.71313947     0.08800
H161        H  0.69412497  0.05246358  0.69933665     0.07800
N162        N  0.79617834  0.08277915  0.76340751    -0.36000
N163        N  0.77126324  0.08688493  0.77259591    -0.28200
C164        C  0.78729105  0.08681661  0.78500730    -0.03400
C165        C  0.82390830  0.08246840  0.78346641     0.05200
C166        C  0.82862954  0.08008823  0.76966398     0.03300
H167        H  0.77261330  0.08839956  0.79445138     0.08400
H168        H  0.85296937  0.07528516  0.76455320     0.07200
N169        N  0.69014174  0.81602300  0.55468251    -0.27200
N170        N  0.68992030  0.80599719  0.56764435    -0.35000
C171        C  0.65301431  0.76688010  0.57027599     0.01200
C172        C  0.62875098  0.75175487  0.55841937     0.07200
C173        C  0.65325491  0.78361051  0.54871816    -0.05900
H174        H  0.64358043  0.75159069  0.58021412     0.07900
H175        H  0.64413780  0.78409013  0.53825232     0.09100
Cu176      Cu  0.73594983  0.84860108  0.58163150     0.44200
Cu177      Cu  0.73875460  0.87474453  0.54597330     0.42000
Cu178      Cu  0.82369332  0.95320666  0.56883906     0.43900
N179        N  0.77728337  0.90169222  0.59394188    -0.34500
N180        N  0.80920490  0.94041363  0.58925758    -0.28800
C181        C  0.82453008  0.97024769  0.59942259    -0.04900
C182        C  0.80124189  0.94902369  0.61103654     0.07300
C183        C  0.77153732  0.90571339  0.60721540     0.01100
H184        H  0.84810056  0.00540428  0.59819983     0.08800
H185        H  0.74517790  0.88027828  0.61330830     0.07800
N186        N  0.82337492  0.96339673  0.54816684    -0.36000
N187        N  0.79140096  0.93565598  0.53992930    -0.28200
C188        C  0.79730433  0.95508241  0.52770369    -0.03400
C189        C  0.83485300  0.99699310  0.52827582     0.05200
C190        C  0.85075788  0.00100050  0.54136263     0.03300
H191        H  0.77453455  0.94080480  0.51927163     0.08400
H192        H  0.87842442  0.03022669  0.54587051     0.07200
N193        N  0.96351411  0.85062830  0.88952932    -0.27200
N194        N  0.95558358  0.84047083  0.90256172    -0.35000
C195        C  0.95617755  0.80286534  0.90496377     0.01200
C196        C  0.96519870  0.78892711  0.89289393     0.07200
C197        C  0.96972750  0.82008317  0.88334376    -0.05900
H198        H  0.95073246  0.78698315  0.91478789     0.07900
H199        H  0.97735971  0.82076155  0.87270907     0.09100
Cu200      Cu  0.94566350  0.87882927  0.91662312     0.44200
Cu201      Cu  0.96560500  0.90518169  0.88046081     0.42000
Cu202      Cu  0.96093339  0.98214596  0.90302004     0.43900
N203        N  0.93784049  0.92449552  0.92794796    -0.34500
N204        N  0.94398431  0.96229389  0.92284266    -0.28800
C205        C  0.93460498  0.98368321  0.93230538    -0.04900
C206        C  0.92211945  0.95832847  0.94398744     0.07300
C207        C  0.92450675  0.92097675  0.94092037     0.01100
H208        H  0.93574526  0.01485733  0.93068353     0.08800
H209        H  0.91643819  0.89309735  0.94753053     0.07800
N210        N  0.96517279  0.99048947  0.88231347    -0.36000
N211        N  0.96543645  0.96137586  0.87388704    -0.28200
C212        C  0.96077083  0.97214543  0.86113243    -0.03400
C213        C  0.95741658  0.00982133  0.86162395     0.05200
C214        C  0.96060394  0.02071304  0.87519895     0.03300
H215        H  0.95683906  0.95222195  0.85227612     0.08400
H216        H  0.95626713  0.04642750  0.87965337     0.07200
N217        N  0.71446290  0.86057559  0.09351342    -0.27200
N218        N  0.70094672  0.86373064  0.08124825    -0.35000
C219        C  0.66208995  0.82656611  0.07864344     0.01200
C220        C  0.65081457  0.79855337  0.08975561     0.07200
C221        C  0.68464579  0.82116660  0.09901901    -0.05900
H222        H  0.64422240  0.81969811  0.06915685     0.07900
H223        H  0.68811693  0.80924735  0.10882611     0.09100
Cu224      Cu  0.73846078  0.91489030  0.06776908     0.44200
Cu225      Cu  0.77436950  0.90819311  0.10175339     0.42000
Cu226      Cu  0.84759978  0.99747866  0.07904899     0.43900
N227        N  0.78676688  0.96084489  0.05491348    -0.34500
N228        N  0.82703554  0.99085769  0.05899193    -0.28800
C229        C  0.85269427  0.00987583  0.04803369    -0.04900
C230        C  0.82725954  0.99093184  0.03654114     0.07300
C231        C  0.78569680  0.95999342  0.04127634     0.01100
H232        H  0.88806604  0.03262887  0.04839922     0.08800
H233        H  0.75808141  0.93566683  0.03529817     0.07800
N234        N  0.86362981  0.99158308  0.09893159    -0.36000
N235        N  0.83709358  0.95869796  0.10716617    -0.28200
C236        C  0.85863162  0.96231107  0.11883047    -0.03400
C237        C  0.90073728  0.99922622  0.11787346     0.05200
C238        C  0.90275000  0.01705528  0.10515105     0.03300
H239        H  0.84526201  0.93880292  0.12715572     0.08400
H240        H  0.93113447  0.04539425  0.10055357     0.07200
N241        N  0.01257794  0.46721449  0.88177006    -0.27200
N242        N  0.01391492  0.47147282  0.89512308    -0.35000
C243        C  0.00659001  0.50438571  0.89838429     0.01200
C244        C  0.00014283  0.52165203  0.88654793     0.07200
C245        C  0.00416623  0.49734077  0.87618665    -0.05900
H246        H  0.00648921  0.51532380  0.90862705     0.07900
H247        H  0.00151586  0.50145881  0.86540852     0.09100
Cu248      Cu  0.02669756  0.43369357  0.90854046     0.44200
Cu249      Cu  0.02371842  0.42155265  0.87182375     0.42000
Cu250      Cu  0.04507815  0.35114600  0.89416143     0.43900
N251        N  0.04359659  0.39489922  0.92001289    -0.34500
N252        N  0.05089826  0.36470212  0.91467550    -0.28800
C253        C  0.06439827  0.34750189  0.92449130    -0.04900
C254        C  0.06537655  0.36777350  0.93661591     0.07300
C255        C  0.05183057  0.39751522  0.93340913     0.01100
H256        H  0.07394108  0.32306754  0.92285773     0.08800
H257        H  0.04927238  0.42016693  0.94023341     0.07800
N258        N  0.04513107  0.34841684  0.87324470    -0.36000
N259        N  0.03819823  0.37425219  0.86502312    -0.28200
C260        C  0.04495664  0.36645422  0.85214391    -0.03400
C261        C  0.05667692  0.33428160  0.85237187     0.05200
C262        C  0.05632685  0.32355123  0.86587318     0.03300
H263        H  0.04329664  0.38417944  0.84334580     0.08400
H264        H  0.06549613  0.30077165  0.87008495     0.07200
N265        N  0.29349756  0.45655207  0.08794400    -0.27200
N266        N  0.30363365  0.45691358  0.07502813    -0.35000
C267        C  0.34507337  0.49061257  0.07285335     0.01200
C268        C  0.36184196  0.51239822  0.08500082     0.07200
C269        C  0.32841231  0.49006735  0.09438775    -0.05900
H270        H  0.36152225  0.49903043  0.06311729     0.07900
H271        H  0.32918748  0.49792664  0.10502569     0.09100
Cu272      Cu  0.26026703  0.41316751  0.06079612     0.44200
Cu273      Cu  0.23254396  0.41022760  0.09593021     0.42000
Cu274      Cu  0.15518850  0.32389455  0.07272686     0.43900
N275        N  0.20929476  0.37119043  0.04807301    -0.34500
N276        N  0.17054325  0.33853148  0.05235973    -0.28800
C277        C  0.14300034  0.32143702  0.04167260    -0.04900
C278        C  0.16574878  0.34453144  0.03017017     0.07300
C279        C  0.20760948  0.37574485  0.03458435     0.01100
H280        H  0.10842356  0.29599677  0.04233225     0.08800
H281        H  0.23392519  0.40167795  0.02858639     0.07800
N282        N  0.14493223  0.32388224  0.09343170    -0.36000
N283        N  0.17201040  0.35640032  0.10165903    -0.28200
C284        C  0.15423523  0.34809701  0.11413228    -0.03400
C285        C  0.11426187  0.30824113  0.11380898     0.05200
C286        C  0.10946774  0.29371505  0.10052268     0.03300
H287        H  0.16913796  0.36975645  0.12278481     0.08400
H288        H  0.08189742  0.26387899  0.09625471     0.07200
C289        C  0.08034330  0.36126234  0.95000594     0.01500
C290        C  0.11534487  0.39792883  0.95683175     0.04300
C291        C  0.12803085  0.39229502  0.96987489    -0.11800
C292        C  0.10619379  0.35000640  0.97609901     0.23600
C293        C  0.07215776  0.31310540  0.96918192    -0.12300
C294        C  0.05921782  0.31865492  0.95614299     0.05000
C295        C  0.11865426  0.34489043  0.99006151     0.27400
C296        C  0.14918599  0.33083638  0.99216956    -0.13000
C297        C  0.16356069  0.32938862  0.00538938     0.05500
C298        C  0.14771806  0.34236559  0.01649693    -0.09000
C299        C  0.11681703  0.35602780  0.01438716     0.06300
C300        C  0.10184935  0.35666309  0.00119583    -0.13400
Br301      Br  0.04274521  0.25523411  0.97778209    -0.05400
Br302      Br  0.14761755  0.45563874  0.94816433     0.00200
Br303      Br  0.20500972  0.30966453  0.00830574     0.00700
Br304      Br  0.05911149  0.37475014  0.99825205    -0.03800
Br305      Br  0.01105154  0.26810517  0.94708055     0.00700
Br306      Br  0.17528403  0.44257379  0.97934638    -0.03100
Br307      Br  0.17203596  0.31469524  0.97688013    -0.03900
Br308      Br  0.09751787  0.37724731  0.02936199     0.00100
C309        C  0.40547929  0.55255308  0.08714689     0.01500
C310        C  0.43803418  0.55012822  0.09481965     0.04300
C311        C  0.48052446  0.58804894  0.09615467    -0.11800
C312        C  0.49018021  0.62840825  0.08995801     0.23600
C313        C  0.45748407  0.63093796  0.08242981    -0.12300
C314        C  0.41519099  0.59306409  0.08101403     0.05000
C315        C  0.53446003  0.66876566  0.09131385     0.27400
C316        C  0.54217821  0.69994014  0.10153307    -0.13000
C317        C  0.58106429  0.74206800  0.10133466     0.05500
C318        C  0.61240604  0.75285987  0.09092885    -0.09000
C319        C  0.60595654  0.72033484  0.08126369     0.06300
C320        C  0.56697629  0.67832002  0.08147233    -0.13400
Br321      Br  0.47094289  0.68650679  0.07400575    -0.05400
Br322      Br  0.42488525  0.49456121  0.10310172     0.00200
Br323      Br  0.58940064  0.78584204  0.11472170     0.00700
Br324      Br  0.55722215  0.63410111  0.06806014    -0.03800
Br325      Br  0.37020625  0.59715229  0.07099760     0.00700
Br326      Br  0.52581475  0.58485249  0.10623670    -0.03100
Br327      Br  0.49827370  0.68524947  0.11541671    -0.03900
Br328      Br  0.65056589  0.73284863  0.06779988     0.00100
C329        C  0.99215783  0.55916855  0.88546538     0.01500
C330        C  0.02258360  0.59873425  0.87860877     0.04300
C331        C  0.01687165  0.63573280  0.87869576    -0.11800
C332        C  0.98127654  0.63362437  0.88582291     0.23600
C333        C  0.95014292  0.59374540  0.89230738    -0.12300
C334        C  0.95536265  0.55649312  0.89204649     0.05000
C335        C  0.97804902  0.67409372  0.88723004     0.27400
C336        C  0.00352347  0.70599947  0.89716442    -0.13000
C337        C  0.00044723  0.74427828  0.89868698     0.05500
C338        C  0.97014407  0.74978327  0.89073464    -0.09000
C339        C  0.94453814  0.71764290  0.88078297     0.06300
C340        C  0.94915385  0.68034022  0.87888236    -0.13400
Br341      Br  0.90101937  0.59074248  0.90188963    -0.05400
Br342      Br  0.07393931  0.60374972  0.86993038     0.00200
Br343      Br  0.03995290  0.79026430  0.91111139     0.00700
Br344      Br  0.91575132  0.63738933  0.86491968    -0.03800
Br345      Br  0.91146561  0.50152474  0.90051955     0.00700
Br346      Br  0.05842662  0.68997374  0.86939441    -0.03100
Br347      Br  0.04223279  0.69672566  0.90884167    -0.03900
Br348      Br  0.90123777  0.72294413  0.87020442     0.00100
C349        C  0.90735113  0.96837156  0.95676641     0.01500
C350        C  0.93665226  0.00669248  0.96428318     0.04300
C351        C  0.92310931  0.01525326  0.97673388    -0.11800
C352        C  0.88042702  0.98549259  0.98171070     0.23600
C353        C  0.85034014  0.94863834  0.97386112    -0.12300
C354        C  0.86376473  0.94002548  0.96140278     0.05000
C355        C  0.86894715  0.98968056  0.99584003     0.27400
C356        C  0.87902181  0.96884750  0.00633974    -0.13000
C357        C  0.86627020  0.97017771  0.01972479     0.05500
C358        C  0.84346532  0.99250801  0.02266401    -0.09000
C359        C  0.83399725  0.01397225  0.01219870     0.06300
C360        C  0.84689533  0.01271343  0.99877823    -0.13400
Br361      Br  0.79102532  0.90951697  0.98040484    -0.05400
Br362      Br  0.99625445  0.04610841  0.95800384     0.00200
Br363      Br  0.87820236  0.93939019  0.03387952     0.00700
Br364      Br  0.83401229  0.04184726  0.98437060    -0.03800
Br365      Br  0.82203716  0.88994409  0.95058821     0.00700
Br366      Br  0.96325798  0.06691069  0.98726340    -0.03100
Br367      Br  0.90943238  0.93746225  0.00224466    -0.03900
Br368      Br  0.80328061  0.04490521  0.01630357     0.00100
C369        C  0.94309264  0.02766402  0.85044939     0.01500
C370        C  0.90118619  0.02373858  0.85094133     0.04300
C371        C  0.88611226  0.03746798  0.83980887    -0.11800
C372        C  0.91246299  0.05448974  0.82811786     0.23600
C373        C  0.95477313  0.05973096  0.82774656    -0.12300
C374        C  0.97015560  0.04637323  0.83892654     0.05000
C375        C  0.89390454  0.06364101  0.81592213     0.27400
C376        C  0.87100536  0.02963401  0.80631597    -0.13000
C377        C  0.84875249  0.03606364  0.79551286     0.05500
C378        C  0.84953323  0.07670522  0.79429408    -0.09000
C379        C  0.87387539  0.11131623  0.80365672     0.06300
C380        C  0.89591752  0.10467344  0.81450180    -0.13400
Br381      Br  0.99077863  0.08410412  0.81174537    -0.05400
Br382      Br  0.86253740  0.99639220  0.86631968     0.00200
Br383      Br  0.81494390  0.98788673  0.78297987     0.00700
Br384      Br  0.92761725  0.15082869  0.82776574    -0.03800
Br385      Br  0.02831376  0.05387719  0.83849083     0.00700
Br386      Br  0.82848561  0.03143457  0.84027923    -0.03100
Br387      Br  0.86864731  0.97348956  0.80838369    -0.03900
Br388      Br  0.87769636  0.16804500  0.80151230     0.00100
C389        C  0.76313740  0.03891289  0.68750108     0.01500
C390        C  0.73598781  0.99506944  0.68271989     0.04300
C391        C  0.74408889  0.98309973  0.66993417    -0.11800
C392        C  0.77949611  0.01485892  0.66196306     0.23600
C393        C  0.80641848  0.05877232  0.66668340    -0.12300
C394        C  0.79830596  0.07078068  0.67946956     0.05000
C395        C  0.78834793  0.00172615  0.64864085     0.27400
C396        C  0.81615484  0.98388911  0.64781216    -0.13000
C397        C  0.82157593  0.96790076  0.63534491     0.05500
C398        C  0.79948781  0.97007961  0.62371189    -0.09000
C399        C  0.77303969  0.98950636  0.62443124     0.06300
C400        C  0.76730403  0.00512624  0.63691506    -0.13400
Br401      Br  0.85429607  0.10222742  0.65557980    -0.05400
Br402      Br  0.68896320  0.95088964  0.69392849     0.00200
Br403      Br  0.85865559  0.94238147  0.63417028     0.00700
Br404      Br  0.72945818  0.02980247  0.63813115    -0.03800
Br405      Br  0.83492052  0.13103559  0.68591460     0.00700
Br406      Br  0.70698375  0.92311861  0.66330120    -0.03100
Br407      Br  0.84573238  0.98035501  0.66386146    -0.03900
Br408      Br  0.74347515  0.99335639  0.60841236     0.00100
C409        C  0.58395283  0.71254401  0.55685787     0.01500
C410        C  0.57623271  0.67853060  0.54763386     0.04300
C411        C  0.53372358  0.64061631  0.54647200    -0.11800
C412        C  0.49921452  0.63619225  0.55473797     0.23600
C413        C  0.50671050  0.67026159  0.56384544    -0.12300
C414        C  0.54882236  0.70876513  0.56474386     0.05000
C415        C  0.45530215  0.59502406  0.55419632     0.27400
C416        C  0.42222695  0.59252605  0.54554795    -0.13000
C417        C  0.38017152  0.55366319  0.54531306     0.05500
C418        C  0.37119378  0.51732349  0.55375832    -0.09000
C419        C  0.40457352  0.51977190  0.56232630     0.06300
C420        C  0.44655739  0.55863791  0.56254168    -0.13400
Br421      Br  0.45921591  0.66363263  0.57521986    -0.05400
Br422      Br  0.62417760  0.68255078  0.53709288     0.00200
Br423      Br  0.33433342  0.55107327  0.53388947     0.00700
Br424      Br  0.49229422  0.56245203  0.57432105    -0.03800
Br425      Br  0.55747975  0.75706218  0.57630901     0.00700
Br426      Br  0.52257173  0.59419889  0.53373573    -0.03100
Br427      Br  0.43462520  0.64276231  0.53421602    -0.03900
Br428      Br  0.39358235  0.46953579  0.57347257     0.00100
C429        C  0.13939427  0.22101505  0.79070078     0.01500
C430        C  0.12205556  0.19945893  0.80321696     0.04300
C431        C  0.10929028  0.21969080  0.81303372    -0.11800
C432        C  0.11316899  0.26110495  0.81026035     0.23600
C433        C  0.13083984  0.28287510  0.79783320    -0.12300
C434        C  0.14443445  0.26315247  0.78810949     0.05000
C435        C  0.09932001  0.28212395  0.82054240     0.27400
C436        C  0.05576684  0.27378761  0.82048390    -0.13000
C437        C  0.04191909  0.29176070  0.83073586     0.05500
C438        C  0.07183968  0.31843358  0.84095977    -0.09000
C439        C  0.11602196  0.32838797  0.84061995     0.06300
C440        C  0.12968451  0.31014226  0.83043269    -0.13400
Br441      Br  0.13699367  0.34014413  0.79431209    -0.05400
Br442      Br  0.11473818  0.14173433  0.80680224     0.00200
Br443      Br  0.98158799  0.27832571  0.83108924     0.00700
Br444      Br  0.19000802  0.32342694  0.82992901    -0.03800
Br445      Br  0.17262608  0.29555730  0.77168482     0.00700
Br446      Br  0.08701899  0.19117217  0.83038469    -0.03100
Br447      Br  0.01544952  0.23776123  0.80629619    -0.03900
Br448      Br  0.15832163  0.36808704  0.85385726     0.00100
C449        C  0.57044650  0.11326656  0.75864523     0.01500
C450        C  0.53451556  0.08714617  0.76739491     0.04300
C451        C  0.49877584  0.09444263  0.76799451    -0.11800
C452        C  0.49793447  0.12633804  0.75940913     0.23600
C453        C  0.53429876  0.15317820  0.75096321    -0.12300
C454        C  0.57105873  0.14768204  0.75093032     0.05000
C455        C  0.45824588  0.13065730  0.75870757     0.27400
C456        C  0.42199658  0.10101859  0.75059332    -0.13000
C457        C  0.38622431  0.10768091  0.74873253     0.05500
C458        C  0.38695849  0.14457644  0.75476201    -0.09000
C459        C  0.42273461  0.17353299  0.76320101     0.06300
C460        C  0.45809085  0.16628037  0.76526356    -0.13400
Br461      Br  0.53286238  0.19624997  0.73896643    -0.05400
Br462      Br  0.53249357  0.03938598  0.77786008     0.00200
Br463      Br  0.33565084  0.06530183  0.73824552     0.00700
Br464      Br  0.50708498  0.20571851  0.77678013    -0.03800
Br465      Br  0.62298646  0.18870053  0.74070201     0.00700
Br466      Br  0.45031664  0.06017143  0.78028584    -0.03100
Br467      Br  0.42204518  0.05196181  0.74170336    -0.03900
Br468      Br  0.42502317  0.22488123  0.77126268     0.00100
C469        C  0.17802879  0.20773580  0.68461176     0.01500
C470        C  0.14198174  0.17485949  0.67708479     0.04300
C471        C  0.13285170  0.18505413  0.66411754    -0.11800
C472        C  0.15979276  0.22804784  0.65868115     0.23600
C473        C  0.19482450  0.26138507  0.66639347    -0.12300
C474        C  0.20385158  0.25127614  0.67938727     0.05000
C475        C  0.15337809  0.23744062  0.64450063     0.27400
C476        C  0.17492996  0.22885017  0.63399694    -0.14200
C477        C  0.17126560  0.24004349  0.62055573     0.05500
C478        C  0.14637471  0.26029870  0.61764846    -0.09000
C479        C  0.12398638  0.26792414  0.62811000     0.06300
C480        C  0.12724191  0.25621424  0.64154327    -0.13400
Br481      Br  0.23076790  0.32061830  0.65899262    -0.05400
Br482      Br  0.10614494  0.11540041  0.68430567     0.00200
Br483      Br  0.20247249  0.22987213  0.60630241     0.00700
Br484      Br  0.09686682  0.26667652  0.65595870    -0.03800
Br485      Br  0.25076721  0.29732870  0.69016696     0.00700
Br486      Br  0.08410588  0.14010752  0.65360826    -0.03100
Br487      Br  0.21085692  0.20326873  0.63817859    -0.03900
Br488      Br  0.08916977  0.29469556  0.62398117     0.00100
C489        C  0.02731223  0.03798426  0.45582286     0.01500
C490        C  0.07078984  0.07486029  0.45466420     0.04300
C491        C  0.08929870  0.10580366  0.46530095    -0.11800
C492        C  0.06445228  0.10012556  0.47707448     0.23600
C493        C  0.02124423  0.06325045  0.47831431    -0.12300
C494        C  0.00274957  0.03203163  0.46773903     0.05000
C495        C  0.08392539  0.13294094  0.48819917     0.27400
C496        C  0.10387623  0.12466375  0.49933250    -0.13000
C497        C  0.12232159  0.15583178  0.50991213     0.05500
C498        C  0.12105953  0.19549347  0.50931239    -0.09000
C499        C  0.10117923  0.20376661  0.49812484     0.06300
C500        C  0.08252972  0.17242447  0.48759775    -0.13400
Br501      Br  0.98777251  0.05573806  0.49459201    -0.05400
Br502      Br  0.10633702  0.08184128  0.43894070     0.00200
Br503      Br  0.15053045  0.14465430  0.52497921     0.00700
Br504      Br  0.05447419  0.18301989  0.47237460    -0.03800
Br505      Br  0.94345751  0.98160913  0.46952834     0.00700
Br506      Br  0.14912312  0.15565628  0.46395809    -0.03100
Br507      Br  0.10589732  0.07055330  0.49999250    -0.03900
Br508      Br  0.09755309  0.25697604  0.49747694     0.00100
C509        C  0.11152194  0.09089209  0.17600087     0.01500
C510        C  0.08272022  0.04475014  0.17418386     0.04300
C511        C  0.04972272  0.02920960  0.16413311    -0.11800
C512        C  0.04584214  0.05978969  0.15576015     0.23600
C513        C  0.07609336  0.10586787  0.15711266    -0.12300
C514        C  0.10882330  0.12142301  0.16727906     0.05000
C515        C  0.00847476  0.04362322  0.14606530     0.27400
C516        C  0.01167624  0.02917167  0.13304009    -0.13000
C517        C  0.97594445  0.01355076  0.12393497     0.05500
C518        C  0.93736741  0.01361980  0.12769263    -0.09000
C519        C  0.93397571  0.02749867  0.14082183     0.06300
C520        C  0.96936501  0.04212774  0.15002315    -0.13400
Br521      Br  0.07162492  0.14747128  0.14526361    -0.05400
Br522      Br  0.08817991  0.00287821  0.18562479     0.00200
Br523      Br  0.97895556  0.98943082  0.10665679     0.00700
Br524      Br  0.96444503  0.05989207  0.16814629    -0.03800
Br525      Br  0.14891030  0.18448690  0.16962611     0.00700
Br526      Br  0.00866448  0.96612547  0.16214568    -0.03100
Br527      Br  0.06508817  0.03073590  0.12774981    -0.03900
Br528      Br  0.88144106  0.02771085  0.14612564     0.00100
C529        C  0.12671312  0.07117470  0.28534204     0.01500
C530        C  0.13726812  0.09915095  0.29672465     0.04300
C531        C  0.11622517  0.08138197  0.30922052    -0.11800
C532        C  0.08463740  0.03560276  0.31035883     0.23600
C533        C  0.07371143  0.00770927  0.29894994    -0.12300
C534        C  0.09459317  0.02547568  0.28643896     0.05000
C535        C  0.06371975  0.01643719  0.32363850     0.27400
C536        C  0.08278164  0.99896276  0.33239894    -0.13000
C537        C  0.06242251  0.97960270  0.34484309     0.05500
C538        C  0.02279554  0.97760581  0.34856286    -0.09000
C539        C  0.00425473  0.99596087  0.33989912     0.06300
C540        C  0.02466184  0.01526553  0.32743700    -0.13400
Br541      Br  0.03094582  0.94488708  0.30063424    -0.05400
Br542      Br  0.18006571  0.16196385  0.29512275     0.00200
Br543      Br  0.09019341  0.95779315  0.35701865     0.00700
Br544      Br  0.99927827  0.04008228  0.31547744    -0.03800
Br545      Br  0.08062230  0.98670509  0.27099091     0.00700
Br546      Br  0.13108080  0.11937199  0.32489071    -0.03100
Br547      Br  0.13712428  0.00204753  0.32731931    -0.03900
Br548      Br  0.95022540  0.99354729  0.34490896     0.00100
C549        C  0.84962061  0.03245949  0.51791806     0.01500
C550        C  0.86088046  0.02569253  0.50478263     0.04300
C551        C  0.87342766  0.05885268  0.49478597    -0.11800
C552        C  0.87404518  0.09847371  0.49781275     0.23600
C553        C  0.86271128  0.10528504  0.51088207    -0.12300
C554        C  0.85066549  0.07246898  0.52095187     0.05000
C555        C  0.88527731  0.13241487  0.48709887     0.27400
C556        C  0.92814743  0.17023369  0.48645359    -0.13000
C557        C  0.93881633  0.20212945  0.47615204     0.05500
C558        C  0.90681567  0.19582982  0.46639195    -0.09000
C559        C  0.86386980  0.15820250  0.46710886     0.06300
C560        C  0.85301355  0.12662832  0.47750394    -0.13400
Br561      Br  0.86233144  0.15914738  0.51479413    -0.05400
Br562      Br  0.85970770  0.97131262  0.50046121     0.00200
Br563      Br  0.99735326  0.25410369  0.47524294     0.00700
Br564      Br  0.79405507  0.07520362  0.47860474    -0.03800
Br565      Br  0.83264971  0.08159058  0.53854913     0.00700
Br566      Br  0.88930054  0.05012568  0.47682602    -0.03100
Br567      Br  0.97216757  0.17764454  0.49958301    -0.03900
Br568      Br  0.81992758  0.15005687  0.45385087     0.00100
C569        C  0.95861933  0.71568199  0.41964820     0.01500
C570        C  0.92570694  0.67992169  0.42732813     0.04300
C571        C  0.92666342  0.64035052  0.42879953    -0.11800
C572        C  0.96095081  0.63673850  0.42284008     0.23600
C573        C  0.99517910  0.67334847  0.41583420    -0.12300
C574        C  0.99396673  0.71269237  0.41418991     0.05000
C575        C  0.95944564  0.59351973  0.42312645     0.27400
C576        C  0.97883936  0.58292913  0.43390217    -0.13000
C577        C  0.97817892  0.54226356  0.43387439     0.05500
C578        C  0.95780914  0.51187274  0.42305853    -0.09000
C579        C  0.93691633  0.52200618  0.41254904     0.06300
C580        C  0.93840804  0.56297319  0.41248676    -0.13400
Br581      Br  0.04331975  0.66908478  0.40831335    -0.05400
Br582      Br  0.87818287  0.68421779  0.43533923     0.00200
Br583      Br  0.00702855  0.52958823  0.44839344     0.00700
Br584      Br  0.91203528  0.57779211  0.39770822    -0.03800
Br585      Br  0.04155578  0.76292327  0.40479362     0.00700
Br586      Br  0.88028434  0.59032828  0.43857802    -0.03100
Br587      Br  0.00710430  0.62485942  0.44851169    -0.03900
Br588      Br  0.90372829  0.47888154  0.39858659     0.00100
C589        C  0.42136185  0.15882531  0.22613946     0.01500
C590        C  0.42731678  0.12490355  0.23164396     0.04300
C591        C  0.46955711  0.12996708  0.23181532    -0.11800
C592        C  0.50586035  0.16833366  0.22616683     0.23600
C593        C  0.49989502  0.20186005  0.22042703    -0.12300
C594        C  0.45781763  0.19736053  0.22053191     0.05000
C595        C  0.55024418  0.17314264  0.22631781     0.27400
C596        C  0.57974819  0.19570414  0.23705790    -0.13000
C597        C  0.62085460  0.19813545  0.23762969     0.05500
C598        C  0.63228847  0.17698241  0.22759485    -0.09000
C599        C  0.60275702  0.15493493  0.21670582     0.06300
C600        C  0.56212107  0.15350653  0.21602350    -0.13400
Br601      Br  0.54962755  0.25396034  0.21250002    -0.05400
Br602      Br  0.37737457  0.07032159  0.23837676     0.00200
Br603      Br  0.66199685  0.23244937  0.25188904     0.00700
Br604      Br  0.52197213  0.12396836  0.20110089    -0.03800
Br605      Br  0.45075280  0.24502045  0.21358748     0.00700
Br606      Br  0.47799632  0.08442797  0.23986442    -0.03100
Br607      Br  0.56328353  0.22281211  0.25107784    -0.03900
Br608      Br  0.61600523  0.12395819  0.20310116     0.00100
C609        C  0.08276685  0.28755719  0.12519278     0.01500
C610        C  0.03891327  0.27845221  0.12395188     0.04300
C611        C  0.01071345  0.26342821  0.13528326    -0.11800
C612        C  0.02582784  0.25670084  0.14780139     0.23600
C613        C  0.06869285  0.26357335  0.14890262    -0.12300
C614        C  0.09724596  0.27921026  0.13765659     0.05000
C615        C  0.99683837  0.24355788  0.15987961     0.27400
C616        C  0.00079391  0.27643157  0.16896133    -0.13000
C617        C  0.97148150  0.26441211  0.17995180     0.05500
C618        C  0.93818367  0.21953664  0.18187245    -0.09000
C619        C  0.93506492  0.18648516  0.17303265     0.06300
C620        C  0.96437815  0.19852091  0.16202549    -0.13400
Br621      Br  0.08811555  0.25182302  0.16592272    -0.05400
Br622      Br  0.01760884  0.28881952  0.10706198     0.00200
Br623      Br  0.97702986  0.30932598  0.19245353     0.00700
Br624      Br  0.96023077  0.15372176  0.14976091    -0.03800
Br625      Br  0.15572749  0.28779657  0.13932690     0.00700
Br626      Br  0.95158236  0.25332361  0.13386217    -0.03100
Br627      Br  0.04623412  0.33794347  0.16624117    -0.03900
Br628      Br  0.89055294  0.12486186  0.17599355     0.00100
C629        C  0.89433571  0.19231302  0.29074898     0.01500
C630        C  0.87927737  0.16137771  0.30154022     0.04300
C631        C  0.89749040  0.17503185  0.31459918    -0.11800
C632        C  0.93011551  0.21985856  0.31697870     0.23600
C633        C  0.94688320  0.25025221  0.30607158    -0.12300
C634        C  0.92913574  0.23653260  0.29295904     0.05000
C635        C  0.94171214  0.23631909  0.33112632     0.27400
C636        C  0.91378333  0.24704251  0.33821763    -0.13000
C637        C  0.92372454  0.26244878  0.35164206     0.05500
C638        C  0.96222186  0.26814218  0.35798261    -0.09000
C639        C  0.99000217  0.25701534  0.35095493     0.06300
C640        C  0.97978186  0.24114789  0.33751352    -0.13400
Br641      Br  0.99239767  0.31136006  0.30932711    -0.05400
Br642      Br  0.83314587  0.10042817  0.29848069     0.00200
Br643      Br  0.88334164  0.27386672  0.36150554     0.00700
Br644      Br  0.01781650  0.22631516  0.32777528    -0.03800
Br645      Br  0.95013545  0.27956978  0.27835834     0.00700
Br646      Br  0.87657226  0.13298824  0.32944725    -0.03100
Br647      Br  0.86185453  0.24088413  0.32941774    -0.03900
Br648      Br  0.04233678  0.26425230  0.35968606     0.00100
loop_ 
_geom_bond_atom_site_label_1 
_geom_bond_atom_site_label_2 
_geom_bond_distance 
_geom_bond_site_symmetry_2 
_ccdc_geom_bond_type 
N1            N2   1.323       .  A
N1            C5   1.346       .  A
N1           Cu9   2.082       .  S
N2            C3   1.345       .  A
N2           Cu8   2.081       .  S
C3            C4   1.386       .  A
C3            H6   1.081       .  S
C4            C5   1.386       .  A
C4          C598   1.487       .  S
C5            H7   1.081       .  S
Cu8          N11   2.081       .  S
Cu9          N19   2.082       .  S
Cu10         N12   2.065       .  S
Cu10         N18   2.065       .  S
N11          N12   1.322       .  A
N11          C15   1.346       .  A
N12          C13   1.345       .  A
C13          C14   1.382       .  A
C13          H16   1.080       .  S
C14          C15   1.385       .  A
C14         C629   1.479       .  S
C15          H17   1.081       .  S
N18          N19   1.323       .  A
N18          C22   1.344       .  A
N19          C20   1.347       .  A
C20          C21   1.383       .  A
C20          H23   1.081       .  S
C21          C22   1.379       .  A
C21         C618   1.473       .  S
C22          H24   1.081       .  S
N25          N26   1.322       .  A
N25          C29   1.348       .  A
N25         Cu33   2.079       .  S
N26          C27   1.344       .  A
N26         Cu32   2.077       .  S
C27          C28   1.385       .  A
C27          H30   1.081       .  S
C28          C29   1.386       .  A
C28         C578   1.486       .  S
C29          H31   1.081       .  S
Cu32         N35   2.077       .  S
Cu33         N43   2.079       .  S
Cu34         N36   2.072       .  S
Cu34         N42   2.072       .  S
N35          N36   1.321       .  A
N35          C39   1.345       .  A
N36          C37   1.347       .  A
C37          C38   1.383       .  A
C37          H40   1.080       .  S
C38          C39   1.384       .  A
C38         C638   1.478       .  S
C39          H41   1.079       .  S
N42          N43   1.324       .  A
N42          C46   1.344       .  A
N43          C44   1.346       .  A
C44          C45   1.381       .  A
C44          H47   1.082       .  S
C45          C46   1.379       .  A
C45         C558   1.471       .  S
C46          H48   1.081       .  S
N49          N50   1.323       .  A
N49          C53   1.347       .  A
N49         Cu57   2.082       .  S
N50          C51   1.344       .  A
N50         Cu56   2.070       .  S
C51          C52   1.382       .  A
C51          H54   1.081       .  S
C52          C53   1.385       .  A
C52         C589   1.480       .  S
C53          H55   1.081       .  S
Cu56         N59   2.069       .  S
Cu57         N67   2.082       .  S
Cu58         N60   2.071       .  S
Cu58         N66   2.071       .  S
N59          N60   1.321       .  A
N59          C63   1.344       .  A
N60          C61   1.346       .  A
C61          C62   1.383       .  A
C61          H64   1.081       .  S
C62          C63   1.381       .  A
C62         C529   1.475       .  S
C63          H65   1.081       .  S
N66          N67   1.324       .  A
N66          C70   1.343       .  A
N67          C68   1.348       .  A
C68          C69   1.383       .  A
C68          H71   1.082       .  S
C69          C70   1.380       .  A
C69         C509   1.474       .  S
C70          H72   1.081       .  S
N73          N74   1.322       .  A
N73          C77   1.345       .  A
N73         Cu81   2.066       .  S
N74          C75   1.345       .  A
N74         Cu80   2.078       .  S
C75          C76   1.385       .  A
C75          H78   1.082       .  S
C76          C77   1.382       .  A
C76         C569   1.479       .  S
C77          H79   1.081       .  S
Cu80         N83   2.078       .  S
Cu81         N91   2.066       .  S
Cu82         N84   2.073       .  S
Cu82         N90   2.073       .  S
N83          N84   1.323       .  A
N83          C87   1.345       .  A
N84          C85   1.346       .  A
C85          C86   1.382   1_655  A
C85          H88   1.080   1_665  S
C86          C87   1.383   1_455  A
C86         C538   1.478       .  S
C87          H89   1.081       .  S
N90          N91   1.322       .  A
N90          C94   1.345   1_665  A
N91          C92   1.343       .  A
C92          C93   1.381   1_665  A
C92          H95   1.082       .  S
C93          C94   1.384       .  A
C93         C489   1.476       .  S
C94          H96   1.080       .  S
N97          N98   1.323       .  A
N97         C101   1.344       .  A
N97        Cu105   2.067       .  S
N98          C99   1.346       .  A
N98        Cu104   2.081       .  S
C99         C100   1.385       .  A
C99         H102   1.081       .  S
C100        C101   1.381       .  A
C100        C458   1.479       .  S
C101        H103   1.080       .  S
Cu104       N107   2.081       .  S
Cu105       N115   2.066       .  S
Cu106       N108   2.057       .  S
Cu106       N114   2.056       .  S
N107        N108   1.323       .  A
N107        C111   1.346       .  A
N108        C109   1.342       .  A
C109        C110   1.377       .  A
C109        H112   1.080       .  S
C110        C111   1.384       .  A
C110        C469   1.471       .  S
C111        H113   1.081       .  S
N114        N115   1.321       .  A
N114        C118   1.342       .  A
N115        C116   1.344       .  A
C116        C117   1.383       .  A
C116        H119   1.082       .  S
C117        C118   1.381       .  A
C117        C429   1.474       .  S
C118        H120   1.082       .  S
N121        N122   1.322       .  A
N121        C125   1.346       .  A
N121       Cu129   2.075       .  S
N122        C123   1.342       .  A
N122       Cu128   2.059       .  S
C123        C124   1.379       .  A
C123        H126   1.082       .  S
C124        C125   1.383       .  A
C124        C418   1.473       .  S
C125        H127   1.082       .  S
Cu128       N131   2.059       .  S
Cu129       N139   2.076       .  S
Cu130       N132   2.062       .  S
Cu130       N138   2.062       .  S
N131        N132   1.320       .  A
N131        C135   1.342       .  A
N132        C133   1.344       .  A
C133        C134   1.382       .  A
C133        H136   1.082       .  S
C134        C135   1.380       .  A
C134        C478   1.469       .  S
C135        H137   1.081       .  S
N138        N139   1.323       .  A
N138        C142   1.342       .  A
N139        C140   1.345       .  A
C140        C141   1.383       .  A
C140        H143   1.082       .  S
C141        C142   1.379       .  A
C141        C498   1.473       .  S
C142        H144   1.082       .  S
N145        N146   1.323       .  A
N145        C149   1.348       .  A
N145       Cu153   2.080       .  S
N146        C147   1.342       .  A
N146       Cu152   2.074       .  S
C147        C148   1.382       .  A
C147        H150   1.082       .  S
C148        C149   1.385       .  A
C148        C449   1.480       .  S
C149        H151   1.080       .  S
Cu152       N155   2.073       .  S
Cu153       N163   2.080       .  S
Cu154       N156   2.058       .  S
Cu154       N162   2.058       .  S
N155        N156   1.321       .  A
N155        C159   1.346       .  A
N156        C157   1.343       .  A
C157        C158   1.379       .  A
C157        H160   1.080       .  S
C158        C159   1.383       .  A
C158        C389   1.472       .  S
C159        H161   1.081       .  S
N162        N163   1.322       .  A
N162        C166   1.342       .  A
N163        C164   1.346       .  A
C164        C165   1.384       .  A
C164        H167   1.082       .  S
C165        C166   1.379       .  A
C165        C378   1.474       .  S
C166        H168   1.082       .  S
N169        N170   1.322       .  A
N169        C173   1.344       .  A
N169       Cu177   2.067       .  S
N170        C171   1.343       .  A
N170       Cu176   2.066       .  S
C171        C172   1.382       .  A
C171        H174   1.082       .  S
C172        C173   1.382       .  A
C172        C409   1.474       .  S
C173        H175   1.082       .  S
Cu176       N179   2.066       .  S
Cu177       N187   2.067       .  S
Cu178       N180   2.067       .  S
Cu178       N186   2.067       .  S
N179        N180   1.322       .  A
N179        C183   1.343       .  A
N180        C181   1.345       .  A
C181        C182   1.381       .  A
C181        H184   1.080   1_565  S
C182        C183   1.380       .  A
C182        C398   1.470       .  S
C183        H185   1.080       .  S
N186        N187   1.322       .  A
N186        C190   1.343   1_565  A
N187        C188   1.344       .  A
C188        C189   1.382       .  A
C188        H191   1.082       .  S
C189        C190   1.383   1_565  A
C189        C549   1.477   1_565  S
C190        H192   1.082       .  S
N193        N194   1.323       .  A
N193        C197   1.345       .  A
N193       Cu201   2.070       .  S
N194        C195   1.346       .  A
N194       Cu200   2.084       .  S
C195        C196   1.386       .  A
C195        H198   1.081       .  S
C196        C197   1.383       .  A
C196        C338   1.482       .  S
C197        H199   1.080       .  S
Cu200       N203   2.084       .  S
Cu201       N211   2.069       .  S
Cu202       N204   2.056       .  S
Cu202       N210   2.055       .  S
N203        N204   1.322       .  A
N203        C207   1.347       .  A
N204        C205   1.342       .  A
C205        C206   1.378       .  A
C205        H208   1.081   1_565  S
C206        C207   1.386       .  A
C206        C349   1.476       .  S
C207        H209   1.080       .  S
N210        N211   1.320       .  A
N210        C214   1.342   1_565  A
N211        C212   1.344       .  A
C212        C213   1.383   1_565  A
C212        H215   1.082       .  S
C213        C214   1.381       .  A
C213        C369   1.473       .  S
C214        H216   1.082       .  S
N217        N218   1.322       .  A
N217        C221   1.345       .  A
N217       Cu225   2.069       .  S
N218        C219   1.343       .  A
N218       Cu224   2.068       .  S
C219        C220   1.382       .  A
C219        H222   1.082       .  S
C220        C221   1.382       .  A
C220        C318   1.476       .  S
C221        H223   1.082       .  S
Cu224       N227   2.068       .  S
Cu225       N235   2.069       .  S
Cu226       N228   2.075       .  S
Cu226       N234   2.075       .  S
N227        N228   1.322       .  A
N227        C231   1.344       .  A
N228        C229   1.345   1_565  A
C229        C230   1.383   1_545  A
C229        H232   1.082       .  S
C230        C231   1.381       .  A
C230        C358   1.474       .  S
C231        H233   1.081       .  S
N234        N235   1.322       .  A
N234        C238   1.344   1_565  A
N235        C236   1.345       .  A
C236        C237   1.382       .  A
C236        H239   1.082       .  S
C237        C238   1.383   1_565  A
C237        C518   1.478   1_565  S
C238        H240   1.082       .  S
N241        N242   1.323       .  A
N241        C245   1.347       .  A
N241       Cu249   2.080       .  S
N242        C243   1.343       .  A
N242       Cu248   2.071       .  S
C243        C244   1.382       .  A
C243        H246   1.082       .  S
C244        C245   1.385       .  A
C244        C329   1.480   1_455  S
C245        H247   1.081       .  S
Cu248       N251   2.070       .  S
Cu249       N259   2.080       .  S
Cu250       N252   2.064       .  S
Cu250       N258   2.064       .  S
N251        N252   1.320       .  A
N251        C255   1.344       .  A
N252        C253   1.345       .  A
C253        C254   1.383       .  A
C253        H256   1.080       .  S
C254        C255   1.384       .  A
C254        C289   1.479       .  S
C255        H257   1.080       .  S
N258        N259   1.323       .  A
N258        C262   1.342       .  A
N259        C260   1.347       .  A
C260        C261   1.384       .  A
C260        H263   1.082       .  S
C261        C262   1.379       .  A
C261        C438   1.474       .  S
C262        H264   1.082       .  S
N265        N266   1.322       .  A
N265        C269   1.346       .  A
N265       Cu273   2.071       .  S
N266        C267   1.342       .  A
N266       Cu272   2.060       .  S
C267        C268   1.379       .  A
C267        H270   1.082       .  S
C268        C269   1.382       .  A
C268        C309   1.471       .  S
C269        H271   1.082       .  S
Cu272       N275   2.060       .  S
Cu273       N283   2.071       .  S
Cu274       N276   2.073       .  S
Cu274       N282   2.073       .  S
N275        N276   1.322       .  A
N275        C279   1.343       .  A
N276        C277   1.346       .  A
C277        C278   1.383       .  A
C277        H280   1.081       .  S
C278        C279   1.380       .  A
C278        C298   1.473       .  S
C279        H281   1.081       .  S
N282        N283   1.323       .  A
N282        C286   1.345       .  A
N283        C284   1.343       .  A
C284        C285   1.383       .  A
C284        H287   1.082       .  S
C285        C286   1.384       .  A
C285        C609   1.481       .  S
C286        H288   1.081       .  S
C289        C290   1.413       .  A
C289        C294   1.413       .  A
C290        C291   1.405       .  A
C290       Br302   1.932       .  S
C291        C292   1.408       .  A
C291       Br306   1.932       .  S
C292        C293   1.407       .  A
C292        C295   1.480       .  S
C293        C294   1.407       .  A
C293       Br301   1.930       .  S
C294       Br305   1.930       .  S
C295        C296   1.408       .  A
C295        C300   1.409   1_556  A
C296        C297   1.406   1_556  A
C296       Br307   1.929       .  S
C297        C298   1.409       .  A
C297       Br303   1.930       .  S
C298        C299   1.411       .  A
C299        C300   1.405       .  A
C299       Br308   1.931       .  S
C300       Br304   1.931   1_554  S
C309        C310   1.410       .  A
C309        C314   1.409       .  A
C310        C311   1.407       .  A
C310       Br322   1.929       .  S
C311        C312   1.408       .  A
C311       Br326   1.928       .  S
C312        C313   1.408       .  A
C312        C315   1.478       .  S
C313        C314   1.403       .  A
C313       Br321   1.932       .  S
C314       Br325   1.931       .  S
C315        C316   1.407       .  A
C315        C320   1.407       .  A
C316        C317   1.406       .  A
C316       Br327   1.930       .  S
C317        C318   1.411       .  A
C317       Br323   1.930       .  S
C318        C319   1.412       .  A
C319        C320   1.405       .  A
C319       Br328   1.931       .  S
C320       Br324   1.930       .  S
C329        C330   1.412   1_655  A
C329        C334   1.412       .  A
C330        C331   1.408       .  A
C330       Br342   1.930       .  S
C331        C332   1.409   1_455  A
C331       Br346   1.930       .  S
C332        C333   1.408       .  A
C332        C335   1.484       .  S
C333        C334   1.406       .  A
C333       Br341   1.930       .  S
C334       Br345   1.931       .  S
C335        C336   1.408   1_655  A
C335        C340   1.408       .  A
C336        C337   1.406       .  A
C336       Br347   1.931       .  S
C337        C338   1.413   1_455  A
C337       Br343   1.931       .  S
C338        C339   1.414       .  A
C339        C340   1.408       .  A
C339       Br348   1.930       .  S
C340       Br344   1.930       .  S
C349        C350   1.412   1_565  A
C349        C354   1.410       .  A
C350        C351   1.406       .  A
C350       Br362   1.930       .  S
C351        C352   1.407   1_545  A
C351       Br366   1.929       .  S
C352        C353   1.408       .  A
C352        C355   1.480       .  S
C353        C354   1.406       .  A
C353       Br361   1.930       .  S
C354       Br365   1.930       .  S
C355        C356   1.408   1_556  A
C355        C360   1.409   1_565  A
C356        C357   1.404       .  A
C356       Br367   1.932       .  S
C357        C358   1.410       .  A
C357       Br363   1.931       .  S
C358        C359   1.409   1_565  A
C359        C360   1.408   1_554  A
C359       Br368   1.928       .  S
C360       Br364   1.928       .  S
C369        C370   1.413       .  A
C369        C374   1.410       .  A
C370        C371   1.403       .  A
C370       Br382   1.932   1_545  S
C371        C372   1.407       .  A
C371       Br386   1.932       .  S
C372        C373   1.407       .  A
C372        C375   1.476       .  S
C373        C374   1.406       .  A
C373       Br381   1.928       .  S
C374       Br385   1.929   1_655  S
C375        C376   1.407       .  A
C375        C380   1.406       .  A
C376        C377   1.404       .  A
C376       Br387   1.932   1_545  S
C377        C378   1.412       .  A
C377       Br383   1.931   1_545  S
C378        C379   1.411       .  A
C379        C380   1.406       .  A
C379       Br388   1.929       .  S
C380       Br384   1.928       .  S
C389        C390   1.409   1_545  A
C389        C394   1.409       .  A
C390        C391   1.405       .  A
C390       Br402   1.930       .  S
C391        C392   1.409   1_565  A
C391       Br406   1.930       .  S
C392        C393   1.408       .  A
C392        C395   1.479       .  S
C393        C394   1.406       .  A
C393       Br401   1.929       .  S
C394       Br405   1.929       .  S
C395        C396   1.409   1_545  A
C395        C400   1.408       .  A
C396        C397   1.406       .  A
C396       Br407   1.929       .  S
C397        C398   1.407       .  A
C397       Br403   1.928       .  S
C398        C399   1.410       .  A
C399        C400   1.405   1_565  A
C399       Br408   1.930       .  S
C400       Br404   1.930       .  S
C409        C410   1.411       .  A
C409        C414   1.412       .  A
C410        C411   1.406       .  A
C410       Br422   1.930       .  S
C411        C412   1.407       .  A
C411       Br426   1.930       .  S
C412        C413   1.407       .  A
C412        C415   1.478       .  S
C413        C414   1.404       .  A
C413       Br421   1.931       .  S
C414       Br425   1.931       .  S
C415        C416   1.408       .  A
C415        C420   1.407       .  A
C416        C417   1.406       .  A
C416       Br427   1.929       .  S
C417        C418   1.410       .  A
C417       Br423   1.929       .  S
C418        C419   1.412       .  A
C419        C420   1.404       .  A
C419       Br428   1.931       .  S
C420       Br424   1.931       .  S
C429        C430   1.410       .  A
C429        C434   1.413       .  A
C430        C431   1.406       .  A
C430       Br442   1.930       .  S
C431        C432   1.409       .  A
C431       Br446   1.930       .  S
C432        C433   1.406       .  A
C432        C435   1.478       .  S
C433        C434   1.405       .  A
C433       Br441   1.930       .  S
C434       Br445   1.931       .  S
C435        C436   1.408       .  A
C435        C440   1.407       .  A
C436        C437   1.407       .  A
C436       Br447   1.929       .  S
C437        C438   1.410       .  A
C437       Br443   1.929   1_455  S
C438        C439   1.411       .  A
C439        C440   1.404       .  A
C439       Br448   1.931       .  S
C440       Br444   1.930       .  S
C449        C450   1.413       .  A
C449        C454   1.411       .  A
C450        C451   1.410       .  A
C450       Br462   1.929       .  S
C451        C452   1.409       .  A
C451       Br466   1.929       .  S
C452        C453   1.408       .  A
C452        C455   1.484       .  S
C453        C454   1.404       .  A
C453       Br461   1.931       .  S
C454       Br465   1.931       .  S
C455        C456   1.409       .  A
C455        C460   1.408       .  A
C456        C457   1.406       .  A
C456       Br467   1.931       .  S
C457        C458   1.411       .  A
C457       Br463   1.931       .  S
C458        C459   1.412       .  A
C459        C460   1.408       .  A
C459       Br468   1.930       .  S
C460       Br464   1.930       .  S
C469        C470   1.409       .  A
C469        C474   1.409       .  A
C470        C471   1.405       .  A
C470       Br482   1.929       .  S
C471        C472   1.407       .  A
C471       Br486   1.929       .  S
C472        C473   1.408       .  A
C472        C475   1.477       .  S
C473        C474   1.405       .  A
C473       Br481   1.930       .  S
C474       Br485   1.930       .  S
C475        C476   1.408       .  A
C475        C480   1.408       .  A
C476        C477   1.404       .  A
C476       Br487   1.931       .  S
C477        C478   1.410       .  A
C477       Br483   1.931       .  S
C478        C479   1.408       .  A
C479        C480   1.405       .  A
C479       Br488   1.929       .  S
C480       Br484   1.928       .  S
C489        C490   1.413       .  A
C489        C494   1.412       .  A
C490        C491   1.405       .  A
C490       Br502   1.931       .  S
C491        C492   1.407       .  A
C491       Br506   1.931       .  S
C492        C493   1.407       .  A
C492        C495   1.479       .  S
C493        C494   1.406       .  A
C493       Br501   1.931   1_455  S
C494       Br505   1.930   1_445  S
C495        C496   1.408       .  A
C495        C500   1.408       .  A
C496        C497   1.405       .  A
C496       Br507   1.931       .  S
C497        C498   1.411       .  A
C497       Br503   1.931       .  S
C498        C499   1.410       .  A
C499        C500   1.405       .  A
C499       Br508   1.930       .  S
C500       Br504   1.930       .  S
C509        C510   1.409       .  A
C509        C514   1.408       .  A
C510        C511   1.406       .  A
C510       Br522   1.930       .  S
C511        C512   1.409       .  A
C511       Br526   1.929   1_545  S
C512        C513   1.410       .  A
C512        C515   1.482       .  S
C513        C514   1.408       .  A
C513       Br521   1.930       .  S
C514       Br525   1.928       .  S
C515        C516   1.408       .  A
C515        C520   1.409   1_455  A
C516        C517   1.407   1_455  A
C516       Br527   1.929       .  S
C517        C518   1.412       .  A
C517       Br523   1.931   1_545  S
C518        C519   1.411       .  A
C519        C520   1.407       .  A
C519       Br528   1.930       .  S
C520       Br524   1.931       .  S
C529        C530   1.409       .  A
C529        C534   1.410       .  A
C530        C531   1.407       .  A
C530       Br542   1.929       .  S
C531        C532   1.409       .  A
C531       Br546   1.929       .  S
C532        C533   1.409       .  A
C532        C535   1.482       .  S
C533        C534   1.407       .  A
C533       Br541   1.930   1_545  S
C534       Br545   1.930   1_545  S
C535        C536   1.408   1_545  A
C535        C540   1.408       .  A
C536        C537   1.406       .  A
C536       Br547   1.931   1_565  S
C537        C538   1.412       .  A
C537       Br543   1.931       .  S
C538        C539   1.410       .  A
C539        C540   1.408   1_565  A
C539       Br548   1.929   1_455  S
C540       Br544   1.929   1_455  S
C549        C550   1.411       .  A
C549        C554   1.414       .  A
C550        C551   1.406       .  A
C550       Br562   1.930   1_545  S
C551        C552   1.408       .  A
C551       Br566   1.930       .  S
C552        C553   1.407       .  A
C552        C555   1.480       .  S
C553        C554   1.405       .  A
C553       Br561   1.931       .  S
C554       Br565   1.932       .  S
C555        C556   1.409       .  A
C555        C560   1.409       .  A
C556        C557   1.406       .  A
C556       Br567   1.929       .  S
C557        C558   1.409       .  A
C557       Br563   1.928       .  S
C558        C559   1.408       .  A
C559        C560   1.405       .  A
C559       Br568   1.929       .  S
C560       Br564   1.931       .  S
C569        C570   1.411       .  A
C569        C574   1.412       .  A
C570        C571   1.408       .  A
C570       Br582   1.929       .  S
C571        C572   1.409       .  A
C571       Br586   1.929       .  S
C572        C573   1.408       .  A
C572        C575   1.485       .  S
C573        C574   1.407       .  A
C573       Br581   1.929   1_655  S
C574       Br585   1.931   1_655  S
C575        C576   1.408       .  A
C575        C580   1.407       .  A
C576        C577   1.410       .  A
C576       Br587   1.929   1_655  S
C577        C578   1.415       .  A
C577       Br583   1.929   1_655  S
C578        C579   1.414       .  A
C579        C580   1.406       .  A
C579       Br588   1.931       .  S
C580       Br584   1.931       .  S
C589        C590   1.412       .  A
C589        C594   1.412       .  A
C590        C591   1.406       .  A
C590       Br602   1.931       .  S
C591        C592   1.408       .  A
C591       Br606   1.930       .  S
C592        C593   1.409       .  A
C592        C595   1.485       .  S
C593        C594   1.409       .  A
C593       Br601   1.929       .  S
C594       Br605   1.929       .  S
C595        C596   1.407       .  A
C595        C600   1.407       .  A
C596        C597   1.408       .  A
C596       Br607   1.931       .  S
C597        C598   1.415       .  A
C597       Br603   1.931       .  S
C598        C599   1.416       .  A
C599        C600   1.409       .  A
C599       Br608   1.930       .  S
C600       Br604   1.931       .  S
C609        C610   1.414       .  A
C609        C614   1.414       .  A
C610        C611   1.406       .  A
C610       Br622   1.931       .  S
C611        C612   1.408       .  A
C611       Br626   1.932   1_455  S
C612        C613   1.407       .  A
C612        C615   1.481   1_455  S
C613        C614   1.407       .  A
C613       Br621   1.930       .  S
C614       Br625   1.931       .  S
C615        C616   1.409   1_655  A
C615        C620   1.408       .  A
C616        C617   1.406   1_455  A
C616       Br627   1.930       .  S
C617        C618   1.408       .  A
C617       Br623   1.930       .  S
C618        C619   1.409       .  A
C619        C620   1.407       .  A
C619       Br628   1.928       .  S
C620       Br624   1.928       .  S
C629        C630   1.410       .  A
C629        C634   1.413       .  A
C630        C631   1.407       .  A
C630       Br642   1.929       .  S
C631        C632   1.409       .  A
C631       Br646   1.929       .  S
C632        C633   1.408       .  A
C632        C635   1.484       .  S
C633        C634   1.408       .  A
C633       Br641   1.930       .  S
C634       Br645   1.931       .  S
C635        C636   1.409       .  A
C635        C640   1.410       .  A
C636        C637   1.404       .  A
C636       Br647   1.932       .  S
C637        C638   1.410       .  A
C637       Br643   1.931       .  S
C638        C639   1.410       .  A
C639        C640   1.411       .  A
C639       Br648   1.928   1_655  S
C640       Br644   1.928   1_655  S
