geometry optimzed in LAMMPS
_audit_creation_date              2020-12-01 
_audit_creation_method            'lammps2cif' 
_symmetry_space_group_name_H-M    'P1' 
_symmetry_Int_Tables_number       1 
_symmetry_cell_setting            triclinic 
loop_ 
_symmetry_equiv_pos_as_xyz 
  x,y,z 
_cell_length_a                    52.15303256 
_cell_length_b                    52.14315962711894 
_cell_length_c                    57.66977775430861 
_cell_angle_alpha                 90.04778449231172 
_cell_angle_beta                  89.91257075033822 
_cell_angle_gamma                 90.0411178488469 
loop_ 
_atom_site_label 
_atom_site_type_symbol 
_atom_site_fract_x 
_atom_site_fract_y 
_atom_site_fract_z 
_atom_site_charge 
O1          O  0.44048067  0.71387369  0.09109402    -0.81800
C2          C  0.39165716  0.67943887  0.17278368     0.97600
O3          O  0.38105007  0.68138083  0.15312889    -0.70900
O4          O  0.38464742  0.72619791  0.13386539    -0.74500
Al5        Al  0.39339422  0.69319403  0.12341723     1.49000
C6          C  0.39531837  0.74706503  0.12894759     0.92800
O7          O  0.45257489  0.73313033  0.15389091    -0.80700
O8          O  0.46534329  0.66328131  0.12860879    -0.74300
Al9        Al  0.44545836  0.72216053  0.12273861     1.90100
O10         O  0.46219872  0.69473738  0.16664003    -0.73400
O11         O  0.41990478  0.64372125  0.13965029    -0.73200
O12         O  0.41577653  0.67895531  0.17427893    -0.78900
O13         O  0.39698266  0.65948186  0.11164727    -0.77100
O14         O  0.42607671  0.69586313  0.13215763    -1.13200
O15         O  0.39944470  0.70448334  0.09217121    -0.72400
C16         C  0.41973317  0.70895878  0.08076516     0.98300
C17         C  0.46255740  0.71878257  0.16905569     0.94700
Al18       Al  0.43964666  0.67217218  0.15058952     1.55600
O19         O  0.41834755  0.74746727  0.12211960    -0.77000
C20         C  0.40479988  0.64043335  0.12287664     0.98900
C21         C  0.48207958  0.67902448  0.12165793     0.93800
O22         O  0.47717873  0.70282719  0.12097297    -0.82300
O23         O  0.46346344  0.69893584  0.87370846    -0.81800
C24         C  0.37569184  0.69018686  0.81678436     0.97600
O25         O  0.39495341  0.67549280  0.81679524    -0.70900
O26         O  0.43752473  0.70064222  0.81107119    -0.74500
Al27       Al  0.42666503  0.67604743  0.83304866     1.49000
C28         C  0.45278637  0.71902205  0.81422477     0.92800
O29         O  0.41754561  0.75158142  0.85462967    -0.80700
O30         O  0.39578796  0.69454565  0.89497308    -0.74300
Al31       Al  0.43915428  0.72349342  0.86349897     1.90100
O32         O  0.38207957  0.73541202  0.86867236    -0.73400
O33         O  0.37944853  0.66322732  0.86216814    -0.73200
O34         O  0.37103741  0.70464727  0.83385452    -0.78900
O35         O  0.41698026  0.64808953  0.85240434    -0.77100
O36         O  0.41703873  0.69970811  0.85351058    -1.13200
O37         O  0.46032112  0.67167229  0.84485419    -0.72400
C38         C  0.47183502  0.67997645  0.86249924     0.98300
C39         C  0.39488754  0.75441528  0.86185607     0.94700
Al40       Al  0.38485699  0.69952332  0.86405885     1.55600
O41         O  0.45677051  0.72781171  0.83433008    -0.77000
C42         C  0.39461314  0.64456023  0.86001469     0.98900
C43         C  0.41191094  0.70814606  0.90574932     0.93800
O44         O  0.42654284  0.72345784  0.89491228    -0.82300
O45         O  0.72757509  0.55586019  0.09191919    -0.81800
C46         C  0.68821631  0.60729607  0.17008863     0.97600
O47         O  0.69310083  0.61758806  0.15074427    -0.70900
O48         O  0.73946462  0.61206730  0.13469054    -0.74500
Al49       Al  0.70687007  0.60440378  0.12227646     1.49000
C50         C  0.76018008  0.60068435  0.13053357     0.92800
O51         O  0.74288526  0.54452054  0.15511383    -0.80700
O52         O  0.67461879  0.53328245  0.12671549    -0.74300
Al53       Al  0.73404121  0.55137232  0.12364902     1.90100
O54         O  0.70351832  0.53641893  0.16636448    -0.73400
O55         O  0.65572606  0.57906832  0.13570612    -0.73200
O56         O  0.68770389  0.58328576  0.17235328    -0.78900
O57         O  0.67362184  0.60189504  0.10860783    -0.77100
O58         O  0.70782168  0.57173642  0.13153535    -1.13200
O59         O  0.72031705  0.59749293  0.09197354    -0.72400
C60         C  0.72389703  0.57661440  0.08129638     0.98300
C61         C  0.72741202  0.53517858  0.16970276     0.94700
Al62       Al  0.68255051  0.55905980  0.14872479     1.55600
O63         O  0.76013086  0.57766139  0.12372869    -0.77000
C64         C  0.65369056  0.59421751  0.11886734     0.98900
C65         C  0.69019747  0.51610641  0.12051553     0.93800
O66         O  0.71410325  0.52019449  0.12130805    -0.82300
O67         O  0.70116920  0.52812863  0.87566267    -0.81800
C68         C  0.67804729  0.61665096  0.82264389     0.97600
O69         O  0.66590397  0.59566407  0.82248598    -0.70900
O70         O  0.69413408  0.55566848  0.81401204    -0.74500
Al71       Al  0.67085076  0.56372847  0.83793068     1.49000
C72         C  0.71405796  0.54213434  0.81520077     0.92800
O73         O  0.74669558  0.58068997  0.85367136    -0.80700
O74         O  0.69206991  0.59453993  0.89909295    -0.74300
Al75       Al  0.72208337  0.55563530  0.86420138     1.90100
O76         O  0.72843947  0.61361159  0.87009429    -0.73400
O77         O  0.65617552  0.60831893  0.86994613    -0.73200
O78         O  0.69322475  0.62223352  0.83886610    -0.78900
O79         O  0.64385103  0.57011735  0.85914481    -0.77100
O80         O  0.69519473  0.57526800  0.85685874    -1.13200
O81         O  0.67083538  0.52958031  0.84944856    -0.72400
C82         C  0.68174903  0.51828866  0.86602864     0.98300
C83         C  0.74790717  0.60357687  0.86085904     0.94700
Al84       Al  0.69270181  0.60688011  0.86854086     1.55600
O85         O  0.72528393  0.53933087  0.83441040    -0.77000
C86         C  0.63888548  0.59162873  0.86788435     0.98900
C87         C  0.70932365  0.58098656  0.90816174     0.93800
O88         O  0.72418525  0.56756586  0.89569099    -0.82300
O89         O  0.56723814  0.27293173  0.09170181    -0.81800
C90         C  0.61950894  0.31617400  0.16833484     0.97600
O91         O  0.62957066  0.31056412  0.14903601    -0.70900
O92         O  0.62371085  0.26318679  0.13537569    -0.74500
Al93       Al  0.61586597  0.29490528  0.12138317     1.49000
C94         C  0.61268658  0.24201621  0.13213572     0.92800
O95         O  0.55709864  0.25962703  0.15586342    -0.80700
O96         O  0.54435944  0.32673496  0.12611794    -0.74300
Al97       Al  0.56314394  0.26754306  0.12405867     1.90100
O98         O  0.54920569  0.29917650  0.16685058    -0.73400
O99         O  0.58987846  0.34631968  0.13277595    -0.73200
O100        O  0.59557364  0.31637699  0.17083926    -0.78900
O101        O  0.61259420  0.32717155  0.10617400    -0.77100
O102        O  0.58333743  0.29417546  0.13099937    -1.13200
O103        O  0.60891306  0.27942615  0.09179025    -0.72400
C104        C  0.58831760  0.27473799  0.08100883     0.98300
C105        C  0.54894003  0.27534872  0.17080763     0.94700
Al106      Al  0.57077026  0.31994623  0.14762396     1.55600
O107        O  0.58989335  0.24172766  0.12467154    -0.77000
C108        C  0.60439742  0.34752738  0.11536744     0.98900
C109        C  0.52726925  0.31090301  0.12044956     0.93800
O110        O  0.53147202  0.28703527  0.12194020    -0.82300
O111        O  0.53631443  0.28619705  0.86537463    -0.81800
C112        C  0.62371679  0.29671861  0.81340966     0.97600
O113        O  0.59973787  0.29870177  0.81115684    -0.70900
O114        O  0.55097884  0.29048284  0.81938375    -0.74500
Al115      Al  0.57711032  0.31011818  0.83433098     1.49000
C116        C  0.54669127  0.26675793  0.81803117     0.92800
O117        O  0.58864846  0.23392345  0.86453529    -0.80700
O118        O  0.61218883  0.27566902  0.89489593    -0.74300
Al119      Al  0.56486745  0.26236885  0.86366036     1.90100
O120        O  0.62508317  0.25124384  0.85396018    -0.73400
O121        O  0.61961801  0.32009927  0.87404061    -0.73200
O122        O  0.63389301  0.29476928  0.83331942    -0.78900
O123        O  0.60069606  0.33637688  0.84375461    -0.77100
O124        O  0.58738989  0.28585621  0.85391193    -1.13200
O125        O  0.55345226  0.32340440  0.85598413    -0.72400
C126        C  0.53516928  0.31052051  0.86442741     0.98300
C127        C  0.61181055  0.23174673  0.85837264     0.94700
Al128      Al  0.61990451  0.28539848  0.86330960     1.55600
O129        O  0.55609360  0.25165625  0.83281601    -0.77000
C130        C  0.61497477  0.33902435  0.86118518     0.98900
C131        C  0.59144054  0.27199036  0.90587068     0.93800
O132        O  0.57056638  0.26988549  0.89514077    -0.82300
O133        O  0.28118952  0.43145089  0.09323358    -0.81800
C134        C  0.31281557  0.38036495  0.17413571     0.97600
O135        O  0.31066399  0.36995177  0.15438390    -0.70900
O136        O  0.26593941  0.37625256  0.13512302    -0.74500
Al137      Al  0.29952033  0.38315126  0.12489896     1.49000
C138        C  0.24578677  0.38853812  0.13076312     0.92800
O139        O  0.26385841  0.44505929  0.15603843    -0.80700
O140        O  0.33431868  0.45177431  0.13072452    -0.74300
Al141      Al  0.27397179  0.43694144  0.12492944     1.90100
O142        O  0.30280806  0.45235209  0.16843989    -0.73400
O143        O  0.35041405  0.40551643  0.14211600    -0.73200
O144        O  0.31410677  0.40439479  0.17625574    -0.78900
O145        O  0.33346872  0.38525377  0.11305377    -0.77100
O146        O  0.29880798  0.41575947  0.13409413    -1.13200
O147        O  0.28852586  0.38995139  0.09389123    -0.72400
C148        C  0.28506487  0.41055244  0.08283691     0.98300
C149        C  0.27891252  0.45485930  0.17066762     0.94700
Al150      Al  0.32330559  0.42749222  0.15274077     1.55600
O151        O  0.24691687  0.41182879  0.12489974    -0.77000
C152        C  0.35300206  0.39141774  0.12449285     0.98900
C153        C  0.32019977  0.46904113  0.12228710     0.93800
O154        O  0.29597605  0.46666114  0.12251878    -0.82300
O155        O  0.30060656  0.46089699  0.86807677    -0.81800
C156        C  0.32532998  0.37491802  0.81796531     0.97600
O157        O  0.32581761  0.39898472  0.81624545    -0.70900
O158        O  0.31060294  0.44571321  0.82367755    -0.74500
Al159      Al  0.33172822  0.42231565  0.84038249     1.49000
C160        C  0.28673347  0.44788097  0.82076273     0.92800
O161        O  0.25429391  0.40227723  0.86564714    -0.80700
O162        O  0.29478782  0.38299869  0.89701104    -0.74300
Al163      Al  0.28037948  0.42930269  0.86583033     1.90100
O164        O  0.27598478  0.36899299  0.85392260    -0.73400
O165        O  0.34099672  0.37931750  0.87990989    -0.73200
O166        O  0.32170104  0.36407442  0.83734085    -0.78900
O167        O  0.35903863  0.40198264  0.85256700    -0.77100
O168        O  0.30672183  0.40930162  0.85755964    -1.13200
O169        O  0.33984576  0.44692140  0.86305662    -0.72400
C170        C  0.32467926  0.46473435  0.86850691     0.98300
C171        C  0.25494804  0.37913808  0.85889434     0.94700
Al172      Al  0.30812939  0.37666196  0.86634656     1.55600
O173        O  0.27128225  0.43674897  0.83436173    -0.77000
C174        C  0.36075069  0.38711121  0.86966277     0.98900
C175        C  0.29032748  0.40343311  0.90820815     0.93800
O176        O  0.28691086  0.42436088  0.89767847    -0.82300
O177        O  0.72593754  0.42465853  0.39729087    -0.81800
C178        C  0.68994776  0.37561634  0.31678884     0.97600
O179        O  0.69211702  0.36495339  0.33644555    -0.70900
O180        O  0.73705902  0.36907108  0.35579276    -0.74500
Al181      Al  0.70390287  0.37753682  0.36608552     1.49000
C182        C  0.75804180  0.38045267  0.35857371     0.92800
O183        O  0.74163180  0.43825365  0.33428046    -0.80700
O184        O  0.67235405  0.44770262  0.36156175    -0.74300
Al185      Al  0.73221054  0.43007135  0.36555416     1.90100
O186        O  0.70265307  0.44719181  0.32316750    -0.73400
O187        O  0.65395699  0.40229848  0.34945199    -0.73200
O188        O  0.68933014  0.39973454  0.31489692    -0.78900
O189        O  0.67011603  0.38088049  0.37807344    -0.77100
O190        O  0.70608052  0.41008811  0.35692985    -1.13200
O191        O  0.71518715  0.38400124  0.39710115    -0.72400
C192        C  0.72061667  0.40433245  0.40799874     0.98300
C193        C  0.72647952  0.44911522  0.32038625     0.94700
Al194      Al  0.68169715  0.42308818  0.33889223     1.55600
O195        O  0.75823360  0.40377686  0.36456136    -0.77000
C196        C  0.65085215  0.38794350  0.36674452     0.98900
C197        C  0.68753235  0.46453866  0.36941534     0.93800
O198        O  0.71153906  0.46067768  0.36884797    -0.82300
O199        O  0.70420411  0.44532792  0.61817953    -0.81800
C200        C  0.69742514  0.35218977  0.66827227     0.97600
O201        O  0.68234585  0.37108030  0.66991366    -0.70900
O202        O  0.70757766  0.41297863  0.67889482    -0.74500
Al203      Al  0.68283437  0.40460082  0.65639179     1.49000
C204        C  0.72486827  0.42965800  0.67705926     0.92800
O205        O  0.75769178  0.39913233  0.63405218    -0.80700
O206        O  0.70129261  0.37983773  0.59238676    -0.74300
Al207      Al  0.72939618  0.42071231  0.62665938     1.90100
O208        O  0.74262231  0.36447911  0.61746157    -0.73400
O209        O  0.67017040  0.36058252  0.62345658    -0.73200
O210        O  0.71189295  0.34945044  0.65093404    -0.78900
O211        O  0.65505514  0.39700591  0.63633638    -0.77100
O212        O  0.70627990  0.39727188  0.63508496    -1.13200
O213        O  0.67853889  0.43980753  0.64776330    -0.72400
C214        C  0.68641149  0.45337074  0.63108706     0.98300
C215        C  0.76120647  0.37724005  0.62534570     0.94700
Al216      Al  0.70651354  0.36622349  0.62211967     1.55600
O217        O  0.73326562  0.43579414  0.65717853    -0.77000
C218        C  0.65154275  0.37566237  0.62659388     0.98900
C219        C  0.71518734  0.39632339  0.58254745     0.93800
O220        O  0.72985190  0.41069003  0.59437536    -0.82300
O221        O  0.57449984  0.71263146  0.39431440    -0.81800
C222        C  0.63097492  0.68095158  0.31609387     0.97600
O223        O  0.63999891  0.68299390  0.33634581    -0.70900
O224        O  0.63345370  0.72665013  0.35662870    -0.74500
Al225      Al  0.62474986  0.69310028  0.36533869     1.49000
C226        C  0.62184112  0.74738245  0.36008610     0.92800
O227        O  0.56725831  0.73234522  0.33121810    -0.80700
O228        O  0.55449501  0.66175983  0.35429175    -0.74300
Al229      Al  0.57207086  0.72104074  0.36254553     1.90100
O230        O  0.55976381  0.69409879  0.31710873    -0.73400
O231        O  0.60061270  0.64375993  0.34604438    -0.73200
O232        O  0.60711728  0.67966278  0.31279949    -0.78900
O233        O  0.62132872  0.65860755  0.37583274    -0.77100
O234        O  0.59287058  0.69533391  0.35421507    -1.13200
O235        O  0.61551181  0.70295299  0.39614834    -0.72400
C236        C  0.59420565  0.70712810  0.40592888     0.98300
C237        C  0.55876740  0.71816262  0.31522035     0.94700
Al238      Al  0.58149147  0.67182845  0.33438020     1.55600
O239        O  0.59828691  0.74702002  0.36511232    -0.77000
C240        C  0.61448730  0.63996204  0.36347240     0.98900
C241        C  0.53696697  0.67676785  0.36079727     0.93800
O242        O  0.54094184  0.70072331  0.36206748    -0.82300
O243        O  0.54146751  0.68741618  0.62338120    -0.81800
C244        C  0.63136150  0.67611855  0.67065559     0.97600
O245        O  0.60765486  0.67371218  0.67408862    -0.70900
O246        O  0.55924576  0.68270105  0.66884629    -0.74500
Al247      Al  0.58349411  0.66262116  0.65240243     1.49000
C248        C  0.55543037  0.70644779  0.67059950     0.92800
O249        O  0.59460340  0.73869297  0.62207358    -0.80700
O250        O  0.61585860  0.69580029  0.59060111    -0.74300
Al251      Al  0.57044383  0.71063039  0.62367362     1.90100
O252        O  0.63151189  0.72070984  0.62988136    -0.73400
O253        O  0.62384610  0.65181100  0.61093876    -0.73200
O254        O  0.64069832  0.67724678  0.65042521    -0.78900
O255        O  0.60545558  0.63578808  0.64159866    -0.77100
O256        O  0.59307687  0.68667861  0.63231324    -1.13200
O257        O  0.55803165  0.64985561  0.63236034    -0.72400
C258        C  0.53949920  0.66323579  0.62522133     0.98300
C259        C  0.61828510  0.74044139  0.62638449     0.94700
Al260      Al  0.62513257  0.68650021  0.62137010     1.55600
O261        O  0.56326412  0.72134791  0.65487696    -0.77000
C262        C  0.61878753  0.63285226  0.62359748     0.98900
C263        C  0.59480845  0.69940396  0.58037604     0.93800
O264        O  0.57447113  0.70310539  0.59175106    -0.82300
O265        O  0.27953204  0.57307353  0.39932752    -0.81800
C266        C  0.31994709  0.61293794  0.31865269     0.97600
O267        O  0.30641848  0.62138329  0.33519487    -0.70900
O268        O  0.27263338  0.61699192  0.36899115    -0.74500
Al269      Al  0.30830075  0.61028917  0.36665171     1.49000
C270        C  0.25309081  0.60572767  0.36141773     0.92800
O271        O  0.27392013  0.53988228  0.34042518    -0.80700
O272        O  0.33229869  0.53200145  0.35676894    -0.74300
Al273      Al  0.27922554  0.55832482  0.36875581     1.90100
O274        O  0.30707836  0.55017491  0.31897637    -0.73400
O275        O  0.35780683  0.57422101  0.35983866    -0.73200
O276        O  0.33284028  0.59255853  0.32084175    -0.78900
O277        O  0.34478968  0.61302764  0.36640110    -0.77100
O278        O  0.30591023  0.57711436  0.35867055    -1.13200
O279        O  0.31034887  0.60206694  0.39861420    -0.72400
C280        C  0.29472704  0.58817186  0.40974733     0.98300
C281        C  0.28570834  0.53940613  0.32134210     0.94700
Al282      Al  0.33027738  0.56344402  0.34073991     1.55600
O283        O  0.25397721  0.58197595  0.35750965    -0.77000
C284        C  0.36267365  0.59689641  0.36558495     0.98900
C285        C  0.32050887  0.52185130  0.37342322     0.93800
O286        O  0.30009321  0.53151792  0.38124571    -0.82300
O287        O  0.30349062  0.53126616  0.61790039    -0.81800
C288        C  0.31190460  0.62084278  0.67362309     0.97600
O289        O  0.32554185  0.60089898  0.67490934    -0.70900
O290        O  0.29834061  0.55940272  0.67997947    -0.74500
Al291      Al  0.32461654  0.56883624  0.65911732     1.49000
C292        C  0.28023796  0.54406085  0.67602652     0.92800
O293        O  0.25074544  0.58045278  0.63396546    -0.80700
O294        O  0.31033607  0.59896871  0.59536680    -0.74300
Al295      Al  0.27874187  0.55717989  0.62654473     1.90100
O296        O  0.26943344  0.61484758  0.62078649    -0.73400
O297        O  0.34106687  0.61413330  0.62872641    -0.73200
O298        O  0.29904481  0.62553382  0.65566013    -0.78900
O299        O  0.35403769  0.57682204  0.64115483    -0.77100
O300        O  0.30272800  0.57871584  0.63722835    -1.13200
O301        O  0.32827727  0.53486115  0.64816931    -0.72400
C302        C  0.32122327  0.52243472  0.63060935     0.98300
C303        C  0.24943024  0.60362319  0.62739905     0.94700
Al304      Al  0.30481014  0.61054414  0.62607926     1.55600
O305        O  0.27227240  0.54033419  0.65563310    -0.77000
C306        C  0.35886949  0.59830293  0.63224562     0.98900
C307        C  0.29529961  0.58437743  0.58442303     0.93800
O308        O  0.28044019  0.56921613  0.59509036    -0.82300
O309        O  0.43616973  0.27285991  0.39555340    -0.81800
C310        C  0.38460309  0.31688002  0.31966409     0.97600
O311        O  0.37444097  0.31174549  0.33903941    -0.70900
O312        O  0.37832421  0.26493467  0.35441093    -0.74500
Al313      Al  0.38785857  0.29689515  0.36701883     1.49000
C314        C  0.38878373  0.24350645  0.35753149     0.92800
O315        O  0.44494946  0.25947207  0.33146532    -0.80700
O316        O  0.45963036  0.32622567  0.36180055    -0.74300
Al317      Al  0.43950652  0.26747768  0.36338874     1.90100
O318        O  0.45469280  0.29881154  0.32119124    -0.73400
O319        O  0.41485097  0.34754823  0.35419232    -0.73200
O320        O  0.40852934  0.31675907  0.31699925    -0.78900
O321        O  0.39217522  0.32957720  0.38127737    -0.77100
O322        O  0.42007734  0.29480669  0.35683049    -1.13200
O323        O  0.39524903  0.28255705  0.39680922    -0.72400
C324        C  0.41592222  0.27667003  0.40698911     0.98300
C325        C  0.45418995  0.27506022  0.31693230     0.94700
Al326      Al  0.43335970  0.32013952  0.34008527     1.55600
O327        O  0.41210143  0.24244401  0.36332709    -0.77000
C328        C  0.40017859  0.34956034  0.37145800     0.98900
C329        C  0.47619879  0.30987327  0.36753272     0.93800
O330        O  0.47161286  0.28612277  0.36538429    -0.82300
O331        O  0.46761301  0.28673783  0.62379198    -0.81800
C332        C  0.37772298  0.30270053  0.67090160     0.97600
O333        O  0.40154402  0.30463675  0.67420513    -0.70900
O334        O  0.44993103  0.29311706  0.66887086    -0.74500
Al335      Al  0.42634397  0.31393870  0.65204543     1.49000
C336        C  0.45313061  0.26925107  0.67062335     0.92800
O337        O  0.41230873  0.23766095  0.62223007    -0.80700
O338        O  0.39240877  0.27942176  0.59121741    -0.74300
Al339      Al  0.43756665  0.26487921  0.62415307     1.90100
O340        O  0.37639176  0.25665672  0.63156467    -0.73400
O341        O  0.38592850  0.32446928  0.61044598    -0.73200
O342        O  0.36853496  0.30110742  0.65066709    -0.78900
O343        O  0.40527746  0.34115582  0.64039859    -0.77100
O344        O  0.41579796  0.28965121  0.63257910    -1.13200
O345        O  0.45247549  0.32514635  0.63158792    -0.72400
C346        C  0.47048504  0.31088155  0.62461291     0.98300
C347        C  0.38880944  0.23649218  0.62757059     0.94700
Al348      Al  0.38367505  0.29028501  0.62186958     1.55600
O349        O  0.44396665  0.25425931  0.65553571    -0.77000
C350        C  0.39160314  0.34370856  0.62256322     0.98900
C351        C  0.41363901  0.27602306  0.58114907     0.93800
O352        O  0.43405281  0.27273967  0.59238994    -0.82300
O353        O  0.93955750  0.20761500  0.59355429    -0.81800
C354        C  0.88229027  0.17108087  0.66949848     0.97600
O355        O  0.87362984  0.17424291  0.64929418    -0.70900
O356        O  0.88075540  0.22056776  0.63368226    -0.74500
Al357      Al  0.88919752  0.18793265  0.62182444     1.49000
C358        C  0.89232649  0.24131140  0.62974585     0.92800
O359        O  0.94605839  0.22521947  0.65703042    -0.80700
O360        O  0.96001428  0.15608225  0.63214950    -0.74300
Al361      Al  0.94178627  0.21512903  0.62556243     1.90100
O362        O  0.95276268  0.18650503  0.67059352    -0.73400
O363        O  0.91366427  0.13735924  0.63755862    -0.73200
O364        O  0.90596952  0.17059372  0.67340124    -0.78900
O365        O  0.89343418  0.15487590  0.60854954    -0.77100
O366        O  0.92102104  0.18918253  0.63301059    -1.13200
O367        O  0.89801422  0.20130302  0.59208272    -0.72400
C368        C  0.91923295  0.20495046  0.58197877     0.98300
C369        C  0.95342331  0.21053712  0.67307492     0.94700
Al370      Al  0.93217002  0.16465460  0.65177571     1.55600
O371        O  0.91550694  0.24085099  0.62348042    -0.77000
C372        C  0.90076472  0.13513749  0.61922373     0.98900
C373        C  0.97744185  0.17162738  0.62652121     0.93800
O374        O  0.97304440  0.19545708  0.62588516    -0.82300
O375        O  0.96838567  0.19901077  0.37847145    -0.81800
C376        C  0.88471475  0.18402140  0.31722076     0.97600
O377        O  0.90425617  0.16977603  0.31910566    -0.70900
O378        O  0.94799281  0.19338128  0.31588310    -0.74500
Al379      Al  0.93430223  0.17112349  0.33820340     1.49000
C380        C  0.96149713  0.21313926  0.31835106     0.92800
O381        O  0.92142193  0.24872186  0.35509380    -0.80700
O382        O  0.89837474  0.19346855  0.39621471    -0.74300
Al383      Al  0.94330430  0.22169019  0.36600247     1.90100
O384        O  0.88544286  0.23217695  0.36722388    -0.73400
O385        O  0.88461800  0.15994278  0.36463658    -0.73200
O386        O  0.87800886  0.19876477  0.33354700    -0.78900
O387        O  0.92268654  0.14455856  0.35814890    -0.77100
O388        O  0.92260923  0.19641601  0.35617071    -1.13200
O389        O  0.96646974  0.16772262  0.35318285    -0.72400
C390        C  0.97756052  0.17886037  0.36973767     0.98300
C391        C  0.89811146  0.25125109  0.36040687     0.94700
Al392      Al  0.88959475  0.19618625  0.36467695     1.55600
O393        O  0.96211180  0.22512488  0.33738599    -0.77000
C394        C  0.89991304  0.14130759  0.36460593     0.98900
C395        C  0.91360017  0.20768798  0.40733680     0.93800
O396        O  0.92887481  0.22261182  0.39675605    -0.82300
O397        O  0.06596082  0.77001808  0.59236570    -0.81800
C398        C  0.11087443  0.80255874  0.67630293     0.97600
O399        O  0.12287768  0.79981589  0.65734246    -0.70900
O400        O  0.11946836  0.75486318  0.63702687    -0.74500
Al401      Al  0.11209259  0.78861379  0.62692717     1.49000
C402        C  0.10877865  0.73437922  0.63073517     0.92800
O403        O  0.05130217  0.74932219  0.65390585    -0.80700
O404        O  0.04028396  0.81971774  0.62911071    -0.74300
Al405      Al  0.05951154  0.76084899  0.62346526     1.90100
O406        O  0.04090496  0.78746486  0.66712007    -0.73400
O407        O  0.08514642  0.83850973  0.64227484    -0.73200
O408        O  0.08674509  0.80315994  0.67675367    -0.78900
O409        O  0.11026492  0.82286962  0.61560124    -0.77100
O410        O  0.07885285  0.78659170  0.63411930    -1.13200
O411        O  0.10734188  0.77809740  0.59536018    -0.72400
C412        C  0.08756007  0.77408972  0.58317139     0.98300
C413        C  0.04096998  0.76334459  0.66911459     0.94700
Al414      Al  0.06447892  0.81023356  0.65214299     1.55600
O415        O  0.08614945  0.73502653  0.62300860    -0.77000
C416        C  0.10181334  0.84180894  0.62674194     0.98900
C417        C  0.02371916  0.80440094  0.62120442     0.93800
O418        O  0.02793186  0.78046635  0.62122273    -0.82300
O419        O  0.04383115  0.78886525  0.37590436    -0.81800
C420        C  0.13382651  0.79690260  0.32149756     0.97600
O421        O  0.11466656  0.81165059  0.32091486    -0.70900
O422        O  0.07260470  0.78635003  0.31344268    -0.74500
Al423      Al  0.08223928  0.81087421  0.33599045     1.49000
C424        C  0.05643750  0.76863365  0.31603316     0.92800
O425        O  0.08922162  0.73569512  0.35622869    -0.80700
O426        O  0.11028908  0.79098346  0.39875295    -0.74300
Al427      Al  0.06789973  0.76369474  0.36558164     1.90100
O428        O  0.12471582  0.75033218  0.37167013    -0.73400
O429        O  0.12792389  0.82308112  0.36728758    -0.73200
O430        O  0.13780668  0.78229891  0.33852236    -0.78900
O431        O  0.09103948  0.83850444  0.35606546    -0.77100
O432        O  0.09079353  0.78708571  0.35655078    -1.13200
O433        O  0.04786411  0.81501838  0.34642837    -0.72400
C434        C  0.03557505  0.80735642  0.36396173     0.98300
C435        C  0.11202557  0.73223369  0.36279235     0.94700
Al436      Al  0.12247169  0.78668605  0.36816982     1.55600
O437        O  0.05103064  0.76035226  0.33603791    -0.77000
C438        C  0.11307108  0.84193329  0.36445206     0.98900
C439        C  0.09427388  0.77662914  0.40882819     0.93800
O440        O  0.07968592  0.76228266  0.39705675    -0.82300
O441        O  0.77503572  0.92706397  0.59571465    -0.81800
C442        C  0.81619112  0.87581748  0.67311954     0.97600
O443        O  0.81030191  0.86522338  0.65405807    -0.70900
O444        O  0.76412796  0.87134154  0.63704536    -0.74500
Al445      Al  0.79712770  0.87848608  0.62518870     1.49000
C446        C  0.74360168  0.88358299  0.63437812     0.92800
O447        O  0.76462453  0.94030525  0.65988416    -0.80700
O448        O  0.83158985  0.94825472  0.62797405    -0.74300
Al449      Al  0.77122828  0.93233015  0.62786203     1.90100
O450        O  0.80468879  0.94712987  0.66858945    -0.73400
O451        O  0.84979827  0.90227062  0.63736543    -0.73200
O452        O  0.81870178  0.89978718  0.67476320    -0.78900
O453        O  0.83028982  0.87964418  0.61128965    -0.77100
O454        O  0.79727697  0.91117505  0.63453738    -1.13200
O455        O  0.78423247  0.88600792  0.59490813    -0.72400
C456        C  0.77893734  0.90668876  0.58449211     0.98300
C457        C  0.78128787  0.94979493  0.67331723     0.94700
Al458      Al  0.82380225  0.92328690  0.65064379     1.55600
O459        O  0.74429222  0.90717814  0.62970591    -0.77000
C460        C  0.85079044  0.88675337  0.62069545     0.98900
C461        C  0.81627723  0.96589782  0.62238923     0.93800
O462        O  0.79228924  0.96249795  0.62388844    -0.82300
O463        O  0.80832447  0.95459212  0.37699608    -0.81800
C464        C  0.81945006  0.86325607  0.32406552     0.97600
O465        O  0.83316075  0.88316671  0.32341943    -0.70900
O466        O  0.80634860  0.92440903  0.31477422    -0.74500
Al467      Al  0.83080133  0.91592013  0.33773859     1.49000
C468        C  0.78899708  0.94100883  0.31720977     0.92800
O469        O  0.75530471  0.90864175  0.35767466    -0.80700
O470        O  0.80961165  0.88806570  0.40074543    -0.74300
Al471      Al  0.78324284  0.93021319  0.36683020     1.90100
O472        O  0.77042241  0.87302966  0.37257754    -0.73400
O473        O  0.84321713  0.87151125  0.37035981    -0.73200
O474        O  0.80367696  0.85972485  0.34035161    -0.78900
O475        O  0.85797542  0.90837895  0.35844870    -0.77100
O476        O  0.80683955  0.90731988  0.35819635    -1.13200
O477        O  0.83401231  0.95065020  0.34732500    -0.72400
C478        C  0.82647535  0.96320927  0.36474443     0.98300
C479        C  0.75197097  0.88597138  0.36473582     0.94700
Al480      Al  0.80669136  0.87578282  0.37005315     1.55600
O481        O  0.78045615  0.94660540  0.33709702    -0.77000
C482        C  0.86178532  0.88684024  0.36768728     0.98900
C483        C  0.79475640  0.90382184  0.41044077     0.93800
O484        O  0.78112242  0.91883433  0.39843623    -0.82300
O485        O  0.22404802  0.05394801  0.59149158    -0.81800
C486        C  0.19005901  0.10517054  0.67238966     0.97600
O487        O  0.19234581  0.11521596  0.65253404    -0.70900
O488        O  0.23789046  0.10915854  0.63440904    -0.74500
Al489      Al  0.20467716  0.10189862  0.62341665     1.49000
C490        C  0.25840164  0.09724681  0.63049640     0.92800
O491        O  0.24145052  0.04026984  0.65454148    -0.80700
O492        O  0.17122897  0.03228085  0.62982982    -0.74300
Al493      Al  0.23114009  0.04845045  0.62337617     1.90100
O494        O  0.20266581  0.03330004  0.66750922    -0.73400
O495        O  0.15461522  0.07830031  0.64046036    -0.73200
O496        O  0.19006483  0.08117581  0.67500772    -0.78900
O497        O  0.17076296  0.09913761  0.61117866    -0.77100
O498        O  0.20594403  0.06927875  0.63267128    -1.13200
O499        O  0.21677306  0.09539796  0.59255923    -0.72400
C500        C  0.22145691  0.07516028  0.58125948     0.98300
C501        C  0.22653723  0.03065328  0.66945627     0.94700
Al502      Al  0.18175627  0.05729800  0.65151902     1.55600
O503        O  0.25787172  0.07427990  0.62340075    -0.77000
C504        C  0.15152248  0.09210327  0.62282318     0.98900
C505        C  0.18545688  0.01479309  0.62181355     0.93800
O506        O  0.20955793  0.01811747  0.62109887    -0.82300
O507        O  0.20844455  0.02482233  0.36281028    -0.81800
C508        C  0.18636854  0.11494880  0.31688601     0.97600
O509        O  0.18643070  0.09117268  0.31331771    -0.70900
O510        O  0.20149713  0.04406975  0.31712038    -0.74500
Al511      Al  0.17941469  0.06554378  0.33504926     1.49000
C512        C  0.22555641  0.04317063  0.31504644     0.92800
O513        O  0.25512480  0.08215198  0.36439702    -0.80700
O514        O  0.21416557  0.10041611  0.39581783    -0.74300
Al515      Al  0.22899565  0.05589874  0.36267515     1.90100
O516        O  0.23488070  0.11722878  0.35442396    -0.73400
O517        O  0.16818774  0.10466402  0.37769766    -0.73200
O518        O  0.18905078  0.12393927  0.33711159    -0.78900
O519        O  0.15169586  0.08471294  0.34799433    -0.77100
O520        O  0.20342055  0.07678520  0.35443802    -1.13200
O521        O  0.16972846  0.03847030  0.35471035    -0.72400
C522        C  0.18448570  0.02094970  0.36153270     0.98300
C523        C  0.25544790  0.10545330  0.35833942     0.94700
Al524      Al  0.20180785  0.10878244  0.36536505     1.55600
O525        O  0.23981398  0.05053645  0.33139691    -0.77000
C526        C  0.14885190  0.09787013  0.36618030     0.98900
C527        C  0.21861503  0.07943501  0.40606455     0.93800
O528        O  0.22125063  0.05899234  0.39461883    -0.82300
O529        O  0.79748724  0.03521467  0.11428780    -0.81800
C530        C  0.81240249  0.11935422  0.17340903     0.97600
O531        O  0.82784608  0.10073218  0.17091673    -0.70900
O532        O  0.80832584  0.05525620  0.17385174    -0.74500
Al533      Al  0.82816942  0.07123109  0.15109045     1.49000
C534        C  0.78780756  0.04276311  0.17307388     0.92800
O535        O  0.74939101  0.08356076  0.13815438    -0.80700
O536        O  0.80338228  0.10530849  0.09424370    -0.74300
Al537      Al  0.77581006  0.06120482  0.12661762     1.90100
O538        O  0.76451613  0.11849845  0.12284433    -0.73400
O539        O  0.83636683  0.12226408  0.12604435    -0.73200
O540        O  0.79765006  0.12635326  0.15712810    -0.78900
O541        O  0.85335377  0.08470836  0.13063503    -0.77100
O542        O  0.80150174  0.08213732  0.13465494    -1.13200
O543        O  0.83245483  0.04005978  0.13490881    -0.72400
C544        C  0.81939914  0.02766490  0.12040089     0.98300
C545        C  0.74603427  0.10613425  0.13113036     0.94700
Al546      Al  0.80053827  0.11507231  0.12581162     1.55600
O547        O  0.77344992  0.04355366  0.15555751    -0.77000
C548        C  0.85570099  0.10802293  0.12595722     0.98900
C549        C  0.78880885  0.08937850  0.08405883     0.93800
O550        O  0.77423007  0.07466097  0.09564966    -0.82300
O551        O  0.78794736  0.05796023  0.90035445    -0.81800
C552        C  0.81773387  0.10634758  0.81700484     0.97600
O553        O  0.81668912  0.11665713  0.83674789    -0.70900
O554        O  0.77181957  0.11268147  0.85675094    -0.74500
Al555      Al  0.80541255  0.10439574  0.86623340     1.49000
C556        C  0.75139263  0.10208472  0.86343017     0.92800
O557        O  0.76324880  0.04469423  0.83970428    -0.80700
O558        O  0.83481214  0.03207427  0.85846101    -0.74300
Al559      Al  0.77703297  0.05236128  0.86950061     1.90100
O560        O  0.80001513  0.03597573  0.82286002    -0.73400
O561        O  0.85371578  0.07752647  0.84772697    -0.73200
O562        O  0.81628990  0.08241233  0.81456322    -0.78900
O563        O  0.83962260  0.10040913  0.87677993    -0.77100
O564        O  0.80227498  0.07162930  0.85782776    -1.13200
O565        O  0.79498330  0.09928640  0.89748745    -0.72400
C566        C  0.79149286  0.07954971  0.90968998     0.98300
C567        C  0.77581290  0.03533617  0.82304746     0.94700
Al568      Al  0.82433190  0.05809616  0.83768840     1.55600
O569        O  0.75186723  0.07949360  0.87136525    -0.77000
C570        C  0.85804091  0.09232046  0.86463433     0.98900
C571        C  0.82005492  0.01574218  0.86752522     0.93800
O572        O  0.79654942  0.02087033  0.87042946    -0.82300
O573        O  0.96656552  0.79281170  0.12440609    -0.81800
C574        C  0.87783585  0.81020567  0.17333742     0.97600
O575        O  0.90172559  0.81082423  0.17703847    -0.70900
O576        O  0.95054585  0.80022766  0.17102756    -0.74500
Al577      Al  0.92672028  0.82039739  0.15487635     1.49000
C578        C  0.95513283  0.77679353  0.17288798     0.92800
O579        O  0.91015564  0.74419526  0.12849671    -0.80700
O580        O  0.89274175  0.78956306  0.09281710    -0.74300
Al581      Al  0.93654056  0.77064424  0.12735693     1.90100
O582        O  0.87470411  0.76615603  0.13186651    -0.73400
O583        O  0.88826068  0.83404048  0.11328196    -0.73200
O584        O  0.86884748  0.80982169  0.15290972    -0.78900
O585        O  0.90614255  0.84802142  0.14461000    -0.77100
O586        O  0.91569603  0.79661471  0.13512374    -1.13200
O587        O  0.95257661  0.83127804  0.13403192    -0.72400
C588        C  0.96977149  0.81705830  0.12537111     0.98300
C589        C  0.88600832  0.74496087  0.13113513     0.94700
Al590      Al  0.88399175  0.79953691  0.12367038     1.55600
O591        O  0.94501418  0.76132338  0.15881066    -0.77000
C592        C  0.89364205  0.85241700  0.12653182     0.98900
C593        C  0.91284494  0.78127020  0.08324974     0.93800
O594        O  0.93214768  0.77535844  0.09512894    -0.82300
O595        O  0.93614678  0.76695828  0.89729572    -0.81800
C596        C  0.88296226  0.80314276  0.81873400     0.97600
O597        O  0.87355988  0.80229953  0.83899903    -0.70900
O598        O  0.87738785  0.75693848  0.85745653    -0.74500
Al599      Al  0.88757914  0.78964911  0.86783977     1.49000
C600        C  0.88800736  0.73559736  0.86050280     0.92800
O601        O  0.94350160  0.74844650  0.83375480    -0.80700
O602        O  0.95901808  0.81791596  0.85855431    -0.74300
Al603      Al  0.93879744  0.75922527  0.86529232     1.90100
O604        O  0.95367556  0.78657962  0.82095839    -0.73400
O605        O  0.91372043  0.83802601  0.84966224    -0.73200
O606        O  0.90686592  0.80260268  0.81553836    -0.78900
O607        O  0.89311734  0.82348520  0.87964244    -0.77100
O608        O  0.91945719  0.78604558  0.85718204    -1.13200
O609        O  0.89533683  0.77756986  0.89850494    -0.72400
C610        C  0.91599665  0.77162332  0.90866667     0.98300
C611        C  0.95294877  0.76261386  0.81820011     0.94700
Al612      Al  0.93223072  0.80932404  0.83791274     1.55600
O613        O  0.91114702  0.73446071  0.86691885    -0.77000
C614        C  0.90067837  0.84221344  0.86761758     0.98900
C615        C  0.97586421  0.80204551  0.86487928     0.93800
O616        O  0.97094015  0.77820246  0.86556759    -0.82300
O617        O  0.21172491  0.96009483  0.12730596    -0.81800
C618        C  0.18828407  0.87434687  0.17749833     0.97600
O619        O  0.18882629  0.89837008  0.17979253    -0.70900
O620        O  0.20532287  0.94455336  0.17251002    -0.74500
Al621      Al  0.18138694  0.92277122  0.15700340     1.49000
C622        C  0.22946344  0.94410984  0.17397454     0.92800
O623        O  0.25466089  0.89966131  0.12553883    -0.80700
O624        O  0.20982868  0.88337244  0.09640444    -0.74300
Al625      Al  0.23030767  0.92776303  0.12755979     1.90100
O626        O  0.23219501  0.86661162  0.13680670    -0.73400
O627        O  0.16497566  0.88217379  0.11718755    -0.73200
O628        O  0.18823685  0.86413596  0.15755202    -0.78900
O629        O  0.15182967  0.90405757  0.14702783    -0.77100
O630        O  0.20369079  0.90902226  0.13731075    -1.13200
O631        O  0.17216940  0.94868934  0.13575637    -0.72400
C632        C  0.18795470  0.96517495  0.12853144     0.98300
C633        C  0.25339857  0.87635458  0.13154792     0.94700
Al634      Al  0.19924901  0.87685400  0.12773905     1.55600
O635        O  0.24272075  0.93357457  0.15832626    -0.77000
C636        C  0.14692650  0.88997481  0.12985759     0.98900
C637        C  0.21552871  0.90365475  0.08551987     0.93800
O638        O  0.22087708  0.92414451  0.09608860    -0.82300
O639        O  0.21916134  0.92650230  0.90053714    -0.81800
C640        C  0.18671353  0.87553465  0.81907253     0.97600
O641        O  0.18916355  0.86541931  0.83887553    -0.70900
O642        O  0.23376563  0.87085685  0.85834159    -0.74500
Al643      Al  0.20023278  0.87854293  0.86829224     1.49000
C644        C  0.25434505  0.88233983  0.86294427     0.92800
O645        O  0.23881770  0.93897666  0.83781156    -0.80700
O646        O  0.16825848  0.94923314  0.86161720    -0.74300
Al647      Al  0.22755092  0.93150203  0.86878030     1.90100
O648        O  0.20044874  0.94671186  0.82413056    -0.73400
O649        O  0.15026734  0.90336468  0.85109249    -0.73200
O650        O  0.18578374  0.89955745  0.81680697    -0.78900
O651        O  0.16612799  0.88117589  0.87953452    -0.77100
O652        O  0.20203820  0.91114505  0.85913138    -1.13200
O653        O  0.21074918  0.88523898  0.89947864    -0.72400
C654        C  0.21457558  0.90561804  0.91082280     0.98300
C655        C  0.22451290  0.94829956  0.82229658     0.94700
Al656      Al  0.17825486  0.92366871  0.84014607     1.55600
O657        O  0.25364375  0.90534828  0.86972696    -0.77000
C658        C  0.14703357  0.88852311  0.86802849     0.98900
C659        C  0.18317613  0.96624712  0.86935609     0.93800
O660        O  0.20714118  0.96238264  0.87010521    -0.82300
O661        O  0.03753507  0.19975274  0.12226623    -0.81800
C662        C  0.12638657  0.18374234  0.16999174     0.97600
O663        O  0.10248367  0.18299823  0.17338340    -0.70900
O664        O  0.05407276  0.19436017  0.16747888    -0.74500
Al665      Al  0.07795279  0.17313517  0.15144706     1.49000
C666        C  0.05230523  0.21831794  0.16924950     0.92800
O667        O  0.09335225  0.24822830  0.12082368    -0.80700
O668        O  0.11189101  0.20353978  0.08929367    -0.74300
Al669      Al  0.06773409  0.22158226  0.12260202     1.90100
O670        O  0.12924970  0.22814779  0.12809100    -0.73400
O671        O  0.11747297  0.15967963  0.11045623    -0.73200
O672        O  0.13565155  0.18509930  0.14968902    -0.78900
O673        O  0.09880681  0.14528641  0.14146226    -0.77100
O674        O  0.08897614  0.19652617  0.13129931    -1.13200
O675        O  0.05258133  0.16162202  0.13082462    -0.72400
C676        C  0.03454282  0.17558158  0.12365873     0.98300
C677        C  0.11718020  0.24858267  0.12469544     0.94700
Al678      Al  0.12080624  0.19435934  0.12028329     1.55600
O679        O  0.06159380  0.23272084  0.15383788    -0.77000
C680        C  0.11196569  0.14126240  0.12356581     0.98900
C681        C  0.09111086  0.20879410  0.07915639     0.93800
O682        O  0.07118020  0.21387864  0.09068475    -0.82300
O683        O  0.06652595  0.21443891  0.89282393    -0.81800
C684        C  0.12726482  0.17953157  0.81782987     0.97600
O685        O  0.13497763  0.18279956  0.83835740    -0.70900
O686        O  0.12665259  0.22865542  0.85495434    -0.74500
Al687      Al  0.11809799  0.19560996  0.86566395     1.49000
C688        C  0.11455129  0.24916958  0.85840926     0.92800
O689        O  0.06114437  0.23304203  0.82958833    -0.80700
O690        O  0.04840203  0.16289139  0.85232842    -0.74300
Al691      Al  0.06510161  0.22229486  0.86087950     1.90100
O692        O  0.05644695  0.19455040  0.81478713    -0.73400
O693        O  0.09518391  0.14521354  0.84764279    -0.73200
O694        O  0.10375357  0.17946281  0.81308069    -0.78900
O695        O  0.11372447  0.16196013  0.87790613    -0.77100
O696        O  0.08668517  0.19685539  0.85344305    -1.13200
O697        O  0.10806303  0.20807007  0.89546332    -0.72400
C698        C  0.08643992  0.21143194  0.90485694     0.98300
C699        C  0.05470592  0.21860589  0.81305725     0.94700
Al700      Al  0.07673525  0.17262386  0.83371858     1.55600
O701        O  0.09101507  0.24867524  0.86369644    -0.77000
C702        C  0.10770378  0.14249590  0.86615827     0.98900
C703        C  0.03055502  0.17768059  0.85845037     0.93800
O704        O  0.03420653  0.20165823  0.85968670    -0.82300
C705        C  0.10448338  0.19663655  0.01495823    -0.22500
C706        C  0.08650685  0.21292628  0.00466347     0.09500
C707        C  0.06995863  0.22761621  0.01866387     0.09900
C708        C  0.07182463  0.22572067  0.04287448    -0.17400
C709        C  0.09007781  0.20963582  0.05341867    -0.27800
C710        C  0.10659894  0.19480245  0.03914315     0.18200
C711        C  0.08545956  0.21407209  0.97908560     0.12200
C712        C  0.05061572  0.24549837  0.00801515    -0.12200
H713        H  0.05917373  0.23717127  0.05361039     0.12500
C714        C  0.12597043  0.17638317  0.04901787    -0.23000
H715        H  0.11694493  0.18532974  0.00392552     0.08100
C716        C  0.10339785  0.22858120  0.96633105     0.04500
C717        C  0.10281932  0.22766746  0.94206315    -0.20200
C718        C  0.08490940  0.21234542  0.93031112    -0.12500
C719        C  0.06700523  0.19762231  0.94314910     0.13200
C720        C  0.06728977  0.19905178  0.96743586    -0.23000
C721        C  0.12321774  0.24486855  0.97834339    -0.06000
H722        H  0.11656754  0.23880585  0.93217654     0.14700
C723        C  0.04843173  0.17905488  0.93212937    -0.16200
H724        H  0.05387126  0.18760864  0.97741091     0.09000
H725        H  0.14084654  0.18699912  0.05886901     0.06900
H726        H  0.13598085  0.16537451  0.03522064     0.08100
H727        H  0.11613218  0.16240666  0.06049965     0.07100
H728        H  0.03707232  0.23445809  0.99702446     0.02000
H729        H  0.06062106  0.25996938  0.99715461     0.02500
H730        H  0.03932255  0.25581277  0.02143530     0.06000
H731        H  0.13554305  0.25526459  0.96574248     0.05000
H732        H  0.13577560  0.23259706  0.98918933    -0.00800
H733        H  0.11356987  0.25925692  0.98955012     0.00700
H734        H  0.05136673  0.15965685  0.93960490     0.04300
H735        H  0.05079440  0.17715078  0.91314384     0.06300
H736        H  0.02847421  0.18524820  0.93580436     0.07100
C737        C  0.13833793  0.01990909  0.88815190    -0.22500
C738        C  0.15050516  0.04111162  0.87799776     0.09500
C739        C  0.17458220  0.03787569  0.86714803     0.09900
C740        C  0.18554011  0.01333400  0.86607589    -0.17400
C741        C  0.17280634  0.99184331  0.87520633    -0.27800
C742        C  0.14921842  0.99529884  0.88700343     0.18200
C743        C  0.13708575  0.06621142  0.87744751     0.12200
C744        C  0.18813685  0.06006444  0.85568732    -0.12200
H745        H  0.20350955  0.01069506  0.85689917     0.12500
C746        C  0.13518159  0.97366339  0.89883694    -0.23000
H747        H  0.12000960  0.02253176  0.89673583     0.08100
C748        C  0.11669975  0.07062537  0.86195156     0.04500
C749        C  0.10649075  0.09537201  0.85996445    -0.20200
C750        C  0.11647622  0.11620708  0.87266501    -0.12500
C751        C  0.13634044  0.11142495  0.88894709     0.13200
C752        C  0.14614556  0.08641287  0.89122900    -0.23000
C753        C  0.10644350  0.04948611  0.84670083    -0.06000
H754        H  0.09119245  0.09857255  0.84760269     0.14700
C755        C  0.14819087  0.13246391  0.90332089    -0.16200
H756        H  0.16174363  0.08273092  0.90317980     0.09000
H757        H  0.11644657  0.97046856  0.89018500     0.06900
H758        H  0.13168685  0.97882046  0.91725887     0.08100
H759        H  0.14606203  0.95542811  0.89883997     0.07100
H760        H  0.19279175  0.07495995  0.86877246     0.02000
H761        H  0.17565125  0.06851586  0.84211290     0.02500
H762        H  0.20635573  0.05399248  0.84733631     0.06000
H763        H  0.09100487  0.05642731  0.83504047     0.05000
H764        H  0.09835968  0.03389396  0.85756579    -0.00800
H765        H  0.12212333  0.04166672  0.83573868     0.00700
H766        H  0.16333570  0.12502801  0.91504527     0.04300
H767        H  0.13329114  0.14165514  0.91429463     0.06300
H768        H  0.15725015  0.14695071  0.89182603     0.07100
C769        C  0.17437550  0.03610216  0.13434000    -0.22500
C770        C  0.15457218  0.03926897  0.11822041     0.09500
C771        C  0.14744965  0.01858887  0.10378809     0.09900
C772        C  0.15911526  0.99455674  0.10702650    -0.17400
C773        C  0.17852092  0.99123225  0.12358326    -0.27800
C774        C  0.18660400  0.01237648  0.13707630     0.18200
C775        C  0.14171936  0.06454361  0.11709993     0.12200
C776        C  0.12804724  0.02204052  0.08472452    -0.12200
H777        H  0.15309755  0.97829256  0.09664198     0.12500
C778        C  0.20740117  0.00976745  0.15500773    -0.23000
H779        H  0.17995555  0.05221857  0.14510987     0.08100
C780        C  0.11855969  0.06926094  0.12902096     0.04500
C781        C  0.10854608  0.09422291  0.12943487    -0.20200
C782        C  0.12162876  0.11488316  0.11905153    -0.12500
C783        C  0.14500376  0.11000191  0.10720748     0.13200
C784        C  0.15449699  0.08482168  0.10616423    -0.23000
C785        C  0.10518170  0.04834629  0.14246227    -0.06000
H786        H  0.09085137  0.09778607  0.13878282     0.14700
C787        C  0.16096278  0.13120038  0.09682755    -0.16200
H788        H  0.17260391  0.08101850  0.09755815     0.09000
H789        H  0.20170796  0.99538306  0.16820454     0.06900
H790        H  0.21116653  0.02816519  0.16411198     0.08100
H791        H  0.22545379  0.00366976  0.14646344     0.07100
H792        H  0.13489819  0.03697489  0.07247664     0.02000
H793        H  0.10930724  0.02806872  0.09196041     0.02500
H794        H  0.12505808  0.00401528  0.07481176     0.06000
H795        H  0.08763349  0.05552937  0.15126015     0.05000
H796        H  0.11826755  0.04067191  0.15594116    -0.00800
H797        H  0.09942641  0.03251616  0.13075006     0.00700
H798        H  0.17911148  0.12385291  0.08922860     0.04300
H799        H  0.15017134  0.14074938  0.08274173     0.06300
H800        H  0.16608420  0.14538784  0.11042496     0.07100
C801        C  0.22935588  0.88638731  0.02273446    -0.22500
C802        C  0.21401906  0.90430952  0.01115966     0.09500
C803        C  0.19920453  0.92190564  0.02405244     0.09900
C804        C  0.20032006  0.92137334  0.04835662    -0.17400
C805        C  0.21571972  0.90348964  0.05998903    -0.27800
C806        C  0.23065788  0.88591404  0.04702522     0.18200
C807        C  0.21435026  0.90478978  0.98549220     0.12200
C808        C  0.18225962  0.94118080  0.01213093    -0.12200
H809        H  0.18890052  0.93480024  0.05837093     0.12500
C810        C  0.24901682  0.86726448  0.05808673    -0.23000
H811        H  0.24088411  0.87306642  0.01269459     0.08100
C812        C  0.23276197  0.91920829  0.97318762     0.04500
C813        C  0.23225910  0.91927873  0.94884315    -0.20200
C814        C  0.21401102  0.90489701  0.93652292    -0.12500
C815        C  0.19547730  0.89047490  0.94899036     0.13200
C816        C  0.19592674  0.89064545  0.97334442    -0.23000
C817        C  0.25293415  0.93445555  0.98580959    -0.06000
H818        H  0.24641941  0.93033208  0.93936495     0.14700
C819        C  0.17455151  0.87567883  0.93688677    -0.16200
H820        H  0.18177977  0.87978926  0.98302031     0.09000
H821        H  0.26849714  0.87013452  0.05072490     0.06900
H822        H  0.24272938  0.84732825  0.05440446     0.08100
H823        H  0.25065601  0.86975482  0.07708216     0.07100
H824        H  0.16775492  0.93104628  0.00143114     0.02000
H825        H  0.19401042  0.95373497  0.00077504     0.02500
H826        H  0.17196719  0.95352984  0.02478819     0.06000
H827        H  0.26586564  0.94468151  0.97360319     0.05000
H828        H  0.26478584  0.92142808  0.99659361    -0.00800
H829        H  0.24365541  0.94892599  0.99717994     0.00700
H830        H  0.18292076  0.85998271  0.92632388     0.04300
H831        H  0.16336926  0.88880113  0.92563184     0.06300
H832        H  0.16102359  0.86677852  0.94941520     0.07100
C833        C  0.04711779  0.81667826  0.86064455    -0.22500
C834        C  0.04945287  0.83663139  0.87681308     0.09500
C835        C  0.02802854  0.84363238  0.89037205     0.09900
C836        C  0.00445292  0.83115595  0.88679462    -0.17400
C837        C  0.00187880  0.81167200  0.87012672    -0.27800
C838        C  0.02363870  0.80412934  0.85701407     0.18200
C839        C  0.07389873  0.85126757  0.87760662     0.12200
C840        C  0.03005198  0.86432610  0.90850287    -0.12200
H841        H  0.98777086  0.83698967  0.89671951     0.12500
C842        C  0.02273460  0.78413603  0.83808773    -0.23000
H843        H  0.06356294  0.81153190  0.85008737     0.08100
C844        C  0.09637330  0.84091073  0.88737117     0.04500
C845        C  0.11961810  0.85434444  0.88521132    -0.20200
C846        C  0.12111378  0.87775675  0.87309646    -0.12500
C847        C  0.09813518  0.88872248  0.86436311     0.13200
C848        C  0.07491124  0.87528901  0.86677807    -0.23000
C849        C  0.09586986  0.81553630  0.89981851    -0.06000
H850        H  0.13693398  0.84583205  0.89215047     0.14700
C851        C  0.09766083  0.91442931  0.85238868    -0.16200
H852        H  0.05748141  0.88315296  0.85943975     0.09000
H853        H  0.03625007  0.76837314  0.84228495     0.06900
H854        H  0.02861454  0.79293237  0.82136898     0.08100
H855        H  0.00357063  0.77560856  0.83551176     0.07100
H856        H  0.03526361  0.88283706  0.90027005     0.02000
H857        H  0.04500098  0.85906309  0.92133453     0.02500
H858        H  0.01166218  0.86703741  0.91792612     0.06000
H859        H  0.11501499  0.81041965  0.90683919     0.05000
H860        H  0.08987728  0.80009634  0.88772954    -0.00800
H861        H  0.08212585  0.81648381  0.91451488     0.00700
H862        H  0.10791603  0.91333040  0.83555144     0.04300
H863        H  0.10668371  0.92916881  0.86364393     0.06300
H864        H  0.07777033  0.92077371  0.84862456     0.07100
C865        C  0.02306465  0.86543605  0.11158216    -0.22500
C866        C  0.04474317  0.84968565  0.11304590     0.09500
C867        C  0.04147169  0.82294584  0.11526972     0.09900
C868        C  0.01664630  0.81271663  0.11755530    -0.17400
C869        C  0.99484361  0.82861931  0.11817933    -0.27800
C870        C  0.99814154  0.85533474  0.11403163     0.18200
C871        C  0.07038231  0.86171447  0.11627679     0.12200
C872        C  0.06431596  0.80531186  0.11630028    -0.12200
H873        H  0.01447507  0.79227057  0.12029914     0.12500
C874        C  0.97573623  0.87353132  0.11237365    -0.23000
H875        H  0.02575000  0.88595393  0.10970524     0.08100
C876        C  0.08733785  0.86683486  0.09775407     0.04500
C877        C  0.11206389  0.87648075  0.10253019    -0.20200
C878        C  0.12004969  0.88149304  0.12542090    -0.12500
C879        C  0.10264108  0.87669246  0.14389620     0.13200
C880        C  0.07813149  0.86699683  0.13900182    -0.23000
C881        C  0.07934221  0.86204902  0.07306416    -0.06000
H882        H  0.12522983  0.88005545  0.08834495     0.14700
C883        C  0.10996640  0.88043897  0.16898817    -0.16200
H884        H  0.06498498  0.86290128  0.15310280     0.09000
H885        H  0.96179123  0.86636765  0.09934818     0.06900
H886        H  0.98189898  0.89300886  0.10690701     0.08100
H887        H  0.96623752  0.87559121  0.12949660     0.07100
H888        H  0.07651216  0.81035045  0.13139170     0.02000
H889        H  0.07578600  0.80717115  0.10016625     0.02500
H890        H  0.05846447  0.78492655  0.11809569     0.06000
H891        H  0.09483298  0.86708781  0.06063388     0.05000
H892        H  0.06225412  0.87386997  0.06892594    -0.00800
H893        H  0.07450394  0.84149933  0.07063415     0.00700
H894        H  0.11362702  0.90103900  0.17251204     0.04300
H895        H  0.12733994  0.86899625  0.17305697     0.06300
H896        H  0.09449234  0.87416937  0.18096774     0.07100
C897        C  0.89788292  0.76144798  0.97195204    -0.22500
C898        C  0.91768485  0.77474449  0.98313264     0.09500
C899        C  0.93784171  0.78534172  0.96990145     0.09900
C900        C  0.93708478  0.78340218  0.94560915    -0.17400
C901        C  0.91675970  0.77089066  0.93429375    -0.27800
C902        C  0.89734139  0.75899062  0.94771857     0.18200
C903        C  0.91690981  0.77698396  0.00875802     0.12200
C904        C  0.96010194  0.79862942  0.98141472    -0.12200
H905        H  0.95215832  0.79219331  0.93535749     0.12500
C906        C  0.87637117  0.74272784  0.93730187    -0.23000
H907        H  0.88283111  0.75271150  0.98226561     0.08100
C908        C  0.90533838  0.79818378  0.01980985     0.04500
C909        C  0.90417923  0.79896670  0.04414495    -0.20200
C910        C  0.91390289  0.77880993  0.05767848    -0.12500
C911        C  0.92463465  0.75708810  0.04644603     0.13200
C912        C  0.92646541  0.75677017  0.02215735    -0.23000
C913        C  0.89386946  0.81974445  0.00589250    -0.06000
H914        H  0.89572675  0.81547825  0.05267524     0.14700
C915        C  0.93300606  0.73326738  0.05919012    -0.16200
H916        H  0.93469839  0.74020331  0.01352101     0.09000
H917        H  0.85746291  0.75173256  0.94074197     0.06900
H918        H  0.87667246  0.72341507  0.94541047     0.08100
H919        H  0.87850120  0.73977202  0.91838572     0.07100
H920        H  0.97001159  0.78503746  0.99318505     0.02000
H921        H  0.95320518  0.81528965  0.99163325     0.02500
H922        H  0.97427801  0.80570653  0.96852015     0.06000
H923        H  0.88541527  0.83476036  0.01723072     0.05000
H924        H  0.87846006  0.81214111  0.99453600    -0.00800
H925        H  0.90882566  0.82886868  0.99496554     0.00700
H926        H  0.92305373  0.71632471  0.05173827     0.04300
H927        H  0.92828325  0.73351021  0.07788869     0.06300
H928        H  0.95400568  0.73064519  0.05711335     0.07100
C929        C  0.89018441  0.91484667  0.86479670    -0.22500
C930        C  0.87038742  0.91808269  0.88094373     0.09500
C931        C  0.86258056  0.89694954  0.89452585     0.09900
C932        C  0.87381225  0.87276615  0.89069204    -0.17400
C933        C  0.89265108  0.86903400  0.87346809    -0.27800
C934        C  0.90163578  0.89084371  0.86098655     0.18200
C935        C  0.85640121  0.94298768  0.88115615     0.12200
C936        C  0.84231187  0.89985615  0.91298538    -0.12200
H937        H  0.86704995  0.85650240  0.90066317     0.12500
C938        C  0.92293309  0.88936844  0.84327847    -0.23000
H939        H  0.89598593  0.93111376  0.85432291     0.08100
C940        C  0.86828438  0.96626720  0.88758993     0.04500
C941        C  0.85534981  0.98956860  0.88385749    -0.20200
C942        C  0.83067680  0.99027308  0.87401836    -0.12500
C943        C  0.81835827  0.96669165  0.86856367     0.13200
C944        C  0.83148942  0.94354654  0.87213796    -0.23000
C945        C  0.89457187  0.96658375  0.89838332    -0.06000
H946        H  0.86480538  0.00745186  0.88821198     0.14700
C947        C  0.79217018  0.96454483  0.85768692    -0.16200
H948        H  0.82256652  0.92569984  0.86682290     0.09000
H949        H  0.92844939  0.90863506  0.83673983     0.06900
H950        H  0.91669038  0.87796363  0.82804356     0.08100
H951        H  0.94025771  0.88068234  0.85121968     0.07100
H952        H  0.82377792  0.90549848  0.90510601     0.02000
H953        H  0.84832282  0.91476956  0.92561336     0.02500
H954        H  0.83917770  0.88167714  0.92260791     0.06000
H955        H  0.90057218  0.98632466  0.90319457     0.05000
H956        H  0.90899515  0.95888601  0.88607620    -0.00800
H957        H  0.89450120  0.95469866  0.91434839     0.00700
H958        H  0.79381180  0.95439212  0.84081109     0.04300
H959        H  0.78270476  0.98300466  0.85435550     0.06300
H960        H  0.77942967  0.95322737  0.86924689     0.07100
C961        C  0.93080451  0.10234613  0.86285240    -0.22500
C962        C  0.93274690  0.12723392  0.87193276     0.09500
C963        C  0.91061353  0.13929424  0.88078275     0.09900
C964        C  0.88683686  0.12673293  0.87930024    -0.17400
C965        C  0.88442951  0.10240216  0.86890062    -0.27800
C966        C  0.90698358  0.08972868  0.86119848     0.18200
C967        C  0.95758853  0.14116557  0.86999237     0.12200
C968        C  0.91205797  0.16558150  0.89156212    -0.12200
H969        H  0.86981425  0.13659508  0.88540804     0.12500
C970        C  0.90628765  0.06297519  0.85128387    -0.23000
H971        H  0.94795801  0.09310924  0.85624766     0.08100
C972        C  0.97863648  0.13583472  0.88458014     0.04500
C973        C  0.00213092  0.14849695  0.88077548    -0.20200
C974        C  0.00487547  0.16671874  0.86300543    -0.12500
C975        C  0.98354140  0.17246189  0.84874751     0.13200
C976        C  0.96025547  0.15957971  0.85244961    -0.23000
C977        C  0.97620710  0.11698083  0.90421120    -0.06000
H978        H  0.01849568  0.14407007  0.89162925     0.14700
C979        C  0.98476254  0.19114366  0.82881068    -0.16200
H980        H  0.94409191  0.16356139  0.84119170     0.09000
H981        H  0.92588076  0.05541621  0.84805376     0.06900
H982        H  0.89604327  0.06288889  0.83444594     0.08100
H983        H  0.89658350  0.04982126  0.86364176     0.07100
H984        H  0.91884411  0.17974761  0.87858240     0.02000
H985        H  0.92557055  0.16524682  0.90641799     0.02500
H986        H  0.89307227  0.17206319  0.89805273     0.06000
H987        H  0.99430771  0.11541951  0.91423874     0.05000
H988        H  0.97141005  0.09769507  0.89731787    -0.00800
H989        H  0.96079664  0.12330528  0.91622884     0.00700
H990        H  0.97986616  0.18107400  0.81242758     0.04300
H991        H  0.00385351  0.19996416  0.82645561     0.06300
H992        H  0.97068544  0.20679220  0.83170092     0.07100
C993        C  0.86462058  0.97376035  0.10441187    -0.22500
C994        C  0.84921477  0.95250112  0.10965870     0.09500
C995        C  0.82318966  0.95618743  0.11554326     0.09900
C996        C  0.81325083  0.98117497  0.11629306    -0.17400
C997        C  0.82906590  0.00256511  0.11251125    -0.27800
C998        C  0.85491991  0.99880012  0.10586676     0.18200
C999        C  0.86171802  0.92725261  0.11266346     0.12200
C1000       C  0.80643519  0.93401123  0.12278655    -0.12200
H1001       H  0.79362154  0.98412300  0.12189153     0.12500
C1002       C  0.87286109  0.02071037  0.10056993    -0.23000
H1003       H  0.88466820  0.97084162  0.10016398     0.08100
C1004       C  0.86115724  0.90799392  0.09553100     0.04500
C1005       C  0.87217191  0.88395089  0.10030779    -0.20200
C1006       C  0.88421980  0.87890476  0.12168855    -0.12500
C1007       C  0.88574160  0.89901728  0.13840395     0.13200
C1008       C  0.87430667  0.92271850  0.13360977    -0.23000
C1009       C  0.84931510  0.91296986  0.07216707    -0.06000
H1010       H  0.87122757  0.86900708  0.08726535     0.14700
C1011       C  0.89889159  0.89604965  0.16156737    -0.16200
H1012       H  0.87486266  0.93790147  0.14646915     0.09000
H1013       H  0.88115452  0.01806847  0.08298628     0.06900
H1014       H  0.88867162  0.02100441  0.11344374     0.08100
H1015       H  0.86317300  0.03961986  0.10075369     0.07100
H1016       H  0.81484264  0.92442470  0.13818549     0.02000
H1017       H  0.80482588  0.91990956  0.10847658     0.02500
H1018       H  0.78677316  0.94040547  0.12742680     0.06000
H1019       H  0.85077974  0.89596234  0.06063472     0.05000
H1020       H  0.85936039  0.92921703  0.06365124    -0.00800
H1021       H  0.82874410  0.91786223  0.07410188     0.00700
H1022       H  0.91945609  0.89135968  0.15891166     0.04300
H1023       H  0.88933708  0.88082668  0.17189425     0.06300
H1024       H  0.89812724  0.91394548  0.17200807     0.07100
C1025       C  0.97655274  0.13084744  0.12340624    -0.22500
C1026       C  0.95822381  0.14641709  0.11278148     0.09500
C1027       C  0.96542208  0.17056217  0.10397308     0.09900
C1028       C  0.99081031  0.17897980  0.10670747    -0.17400
C1029       C  0.00913828  0.16394590  0.11835266    -0.27800
C1030       C  0.00188990  0.13915362  0.12639908     0.18200
C1031       C  0.93113972  0.13808628  0.11384589     0.12200
C1032       C  0.94621999  0.18753005  0.09199045    -0.12200
H1033       H  0.99612445  0.19778530  0.10029042     0.12500
C1034       C  0.02001614  0.12153885  0.13912596    -0.23000
H1035       H  0.97061941  0.11243425  0.13030387     0.08100
C1036       C  0.92164772  0.11781507  0.10009258     0.04500
C1037       C  0.89675398  0.10847140  0.10418913    -0.20200
C1038       C  0.88128587  0.11906402  0.12168829    -0.12500
C1039       C  0.89090822  0.13951389  0.13537335     0.13200
C1040       C  0.91560089  0.14885890  0.13106664    -0.23000
C1041       C  0.93779955  0.10616218  0.08116763    -0.06000
H1042       H  0.88936260  0.09278426  0.09380065     0.14700
C1043       C  0.87654559  0.15109459  0.15555879    -0.16200
H1044       H  0.92326258  0.16402433  0.14193894     0.09000
H1045       H  0.03652062  0.11654879  0.12781294     0.06900
H1046       H  0.01063740  0.10325686  0.14422666     0.08100
H1047       H  0.02683283  0.13089929  0.15528263     0.07100
H1048       H  0.93052815  0.19266486  0.10414898     0.02000
H1049       H  0.93802978  0.17727216  0.07683265     0.02500
H1050       H  0.95512865  0.20559967  0.08571724     0.06000
H1051       H  0.92728771  0.09087128  0.07170700     0.05000
H1052       H  0.95538404  0.09756067  0.08866687    -0.00800
H1053       H  0.94333674  0.12123666  0.06851940     0.00700
H1054       H  0.88819104  0.14915827  0.17157178     0.04300
H1055       H  0.85791677  0.14186535  0.15903373     0.06300
H1056       H  0.87310737  0.17177204  0.15222987     0.07100
C1057       C  0.77248759  0.07261249  0.02116841    -0.22500
C1058       C  0.79190819  0.08570925  0.00941384     0.09500
C1059       C  0.81011525  0.10003433  0.02190490     0.09900
C1060       C  0.80835202  0.10110388  0.04614218    -0.17400
C1061       C  0.78894586  0.08786594  0.05826496    -0.27800
C1062       C  0.77082209  0.07316625  0.04541713     0.18200
C1063       C  0.79258916  0.08414311  0.98389703     0.12200
C1064       C  0.83164043  0.11378020  0.00965343    -0.12200
H1065       H  0.82250770  0.11208486  0.05562460     0.12500
C1066       C  0.74962920  0.05785789  0.05667978    -0.23000
H1067       H  0.75866721  0.06167926  0.01120027     0.08100
C1068       C  0.80199657  0.06219690  0.97243714     0.04500
C1069       C  0.80132253  0.06123438  0.94818088    -0.20200
C1070       C  0.79164491  0.08181218  0.93518493    -0.12500
C1071       C  0.78222851  0.10388236  0.94679808     0.13200
C1072       C  0.78277955  0.10465367  0.97107222    -0.23000
C1073       C  0.81293963  0.03995558  0.98581369    -0.06000
H1074       H  0.80864443  0.04441345  0.93929952     0.14700
C1075       C  0.77078637  0.12631490  0.93393397    -0.16200
H1076       H  0.77537071  0.12129160  0.98019271     0.09000
H1077       H  0.75793216  0.04254507  0.06772132     0.06900
H1078       H  0.73718967  0.04826608  0.04367512     0.08100
H1079       H  0.73721116  0.07066732  0.06719144     0.07100
H1080       H  0.82370099  0.12835519  0.99763246     0.02000
H1081       H  0.84324143  0.09977129  0.99961787     0.02500
H1082       H  0.84454770  0.12371402  0.02205483     0.06000
H1083       H  0.81993067  0.02453197  0.97411205     0.05000
H1084       H  0.79801252  0.03163291  0.99729828    -0.00800
H1085       H  0.82931634  0.04662426  0.99652547     0.00700
H1086       H  0.76278227  0.14089605  0.94598499     0.04300
H1087       H  0.75497544  0.11960416  0.92255609     0.06300
H1088       H  0.78572552  0.13597516  0.92336061     0.07100
C1089       C  0.23321343  0.02356414  0.25216820    -0.22500
C1090       C  0.25113928  0.00374329  0.25414832     0.09500
C1091       C  0.26421851  0.00017194  0.27529532     0.09900
C1092       C  0.25672892  0.01454817  0.29485281    -0.17400
C1093       C  0.23656517  0.03236947  0.29346105    -0.27800
C1094       C  0.22577031  0.03800179  0.27151023     0.18200
C1095       C  0.25167823  0.98453597  0.23520580     0.12200
C1096       C  0.28570271  0.98102720  0.27718691    -0.12200
H1097       H  0.26564325  0.01085549  0.31147601     0.12500
C1098       C  0.20628703  0.05906104  0.26824467    -0.23000
H1099       H  0.22370577  0.02657175  0.23568013     0.08100
C1100       C  0.23521820  0.96305912  0.23630502     0.04500
C1101       C  0.23046047  0.94884922  0.21617468    -0.20200
C1102       C  0.24116969  0.95584211  0.19476288    -0.12500
C1103       C  0.25888717  0.97646041  0.19387410     0.13200
C1104       C  0.26399351  0.99048835  0.21423545    -0.23000
C1105       C  0.22095643  0.95630500  0.25827027    -0.06000
H1106       H  0.21687221  0.93309849  0.21682286     0.14700
C1107       C  0.27134146  0.98548358  0.17174667    -0.16200
H1108       H  0.27626635  0.00725204  0.21339147     0.09000
H1109       H  0.18811938  0.05422191  0.27722747     0.06900
H1110       H  0.20161560  0.06199568  0.24964870     0.08100
H1111       H  0.21405069  0.07740031  0.27507001     0.07100
H1112       H  0.30120237  0.98627552  0.26484719     0.02000
H1113       H  0.27878663  0.96147048  0.27296036     0.02500
H1114       H  0.29394369  0.98065883  0.29493086     0.06000
H1115       H  0.20832874  0.93935226  0.25585462     0.05000
H1116       H  0.20873995  0.97265144  0.26376833    -0.00800
H1117       H  0.23469461  0.95174671  0.27231508     0.00700
H1118       H  0.26633456  0.00589276  0.16866881     0.04300
H1119       H  0.26541216  0.97440847  0.15630682     0.06300
H1120       H  0.29248627  0.98391946  0.17339763     0.07100
C1121       C  0.19051833  0.16593015  0.26983122    -0.22500
C1122       C  0.16921137  0.15899504  0.25644988     0.09500
C1123       C  0.15314083  0.13874455  0.26367278     0.09900
C1124       C  0.15912476  0.12539857  0.28390007    -0.17400
C1125       C  0.18074648  0.13176712  0.29712166    -0.27800
C1126       C  0.19658294  0.15247215  0.29020806     0.18200
C1127       C  0.16449759  0.17150499  0.23397342     0.12200
C1128       C  0.12992059  0.13084813  0.24977636    -0.12200
H1129       H  0.14700786  0.10957947  0.28931287     0.12500
C1130       C  0.22052143  0.16012050  0.30306615    -0.23000
H1131       H  0.20282284  0.18140787  0.26401553     0.08100
C1132       C  0.14603451  0.19101969  0.23189455     0.04500
C1133       C  0.13578907  0.19637071  0.21002402    -0.20200
C1134       C  0.14316435  0.18215683  0.19039524    -0.12500
C1135       C  0.16328056  0.16398270  0.19225916     0.13200
C1136       C  0.17410124  0.15942954  0.21408612    -0.23000
C1137       C  0.13602416  0.20496488  0.25292898    -0.06000
H1138       H  0.12058374  0.21044200  0.20850811     0.14700
C1139       C  0.17228168  0.14707691  0.17258500    -0.16200
H1140       H  0.18824065  0.14432047  0.21598283     0.09000
H1141       H  0.21869863  0.18025625  0.30911341     0.06900
H1142       H  0.23730732  0.15869106  0.29126825     0.08100
H1143       H  0.22447585  0.14790333  0.31828913     0.07100
H1144       H  0.13584773  0.12477949  0.23211115     0.02000
H1145       H  0.11636214  0.14716735  0.24839182     0.02500
H1146       H  0.11955757  0.11458073  0.25795879     0.06000
H1147       H  0.12148410  0.21960934  0.24820868     0.05000
H1148       H  0.15211959  0.21479122  0.26185201    -0.00800
H1149       H  0.12693736  0.19120248  0.26510553     0.00700
H1150       H  0.19291671  0.15078169  0.16920004     0.04300
H1151       H  0.16991108  0.12663240  0.17754685     0.06300
H1152       H  0.16179622  0.14971663  0.15618257     0.07100
C1153       C  0.23599703  0.09644818  0.51932135    -0.22500
C1154       C  0.22225045  0.07809120  0.50662189     0.09500
C1155       C  0.20915225  0.05835591  0.51849313     0.09900
C1156       C  0.20982621  0.05761708  0.54282441    -0.17400
C1157       C  0.22317864  0.07622082  0.55563988    -0.27800
C1158       C  0.23690933  0.09564522  0.54367378     0.18200
C1159       C  0.22208100  0.07953356  0.48088146     0.12200
C1160       C  0.19394953  0.03841571  0.50550155    -0.12200
H1161       H  0.19935344  0.04274453  0.55194052     0.12500
C1162       C  0.25356762  0.11517535  0.55576403    -0.23000
H1163       H  0.24643189  0.11129197  0.51012361     0.08100
C1164       C  0.20674806  0.09745175  0.46893837     0.04500
C1165       C  0.20619726  0.09706145  0.44457938    -0.20200
C1166       C  0.22051106  0.07905741  0.43179910    -0.12500
C1167       C  0.23640115  0.06150397  0.44388536     0.13200
C1168       C  0.23698431  0.06206727  0.46824444    -0.23000
C1169       C  0.19059303  0.11664833  0.48190256    -0.06000
H1170       H  0.19412658  0.11063008  0.43548099     0.14700
C1171       C  0.25330871  0.04252333  0.43139534    -0.16200
H1172       H  0.24894143  0.04859317  0.47758161     0.09000
H1173       H  0.24567439  0.13468170  0.55288824     0.06900
H1174       H  0.27326794  0.11436364  0.54846020     0.08100
H1175       H  0.25539242  0.11189205  0.57464191     0.07100
H1176       H  0.20682559  0.02721021  0.49399578     0.02000
H1177       H  0.17899047  0.04791906  0.49486420     0.02500
H1178       H  0.18430517  0.02477702  0.51745909     0.06000
H1179       H  0.17932437  0.12891719  0.46992893     0.05000
H1180       H  0.20307951  0.12933560  0.49245294    -0.00800
H1181       H  0.17697097  0.10646139  0.49349871     0.00700
H1182       H  0.26561629  0.03162783  0.44360919     0.04300
H1183       H  0.26608793  0.05276550  0.41907062     0.06300
H1184       H  0.24138997  0.02836747  0.42190596     0.07100
C1185       C  0.25833487  0.96471865  0.76536319    -0.22500
C1186       C  0.24406426  0.98628339  0.75862366     0.09500
C1187       C  0.22578868  0.99662664  0.77408835     0.09900
C1188       C  0.22181087  0.98484992  0.79561494    -0.17400
C1189       C  0.23482699  0.96232214  0.80192172    -0.27800
C1190       C  0.25387151  0.95241165  0.78676762     0.18200
C1191       C  0.24503978  0.99520030  0.73415649     0.12200
C1192       C  0.20907960  0.01900412  0.76728215    -0.12200
H1193       H  0.20721669  0.99247646  0.80714344     0.12500
C1194       C  0.26863788  0.92815046  0.79157568    -0.23000
H1195       H  0.27203333  0.95656497  0.75326405     0.08100
C1196       C  0.25774334  0.01796652  0.72744426     0.04500
C1197       C  0.25313546  0.02833478  0.70526053    -0.20200
C1198       C  0.23613253  0.01632171  0.68981530    -0.12500
C1199       C  0.22533990  0.99230635  0.69587465     0.13200
C1200       C  0.22997353  0.98206373  0.71794758    -0.23000
C1201       C  0.27577528  0.03141654  0.74379947    -0.06000
H1202       H  0.26160663  0.04658476  0.70051339     0.14700
C1203       C  0.20873103  0.97745162  0.67918190    -0.16200
H1204       H  0.22065169  0.96435213  0.72307422     0.09000
H1205       H  0.28946049  0.93256718  0.79210849     0.06900
H1206       H  0.26509201  0.91410496  0.77745375     0.08100
H1207       H  0.26338132  0.91876995  0.80807651     0.07100
H1208       H  0.19780002  0.01403832  0.75159487     0.02000
H1209       H  0.22101776  0.03610003  0.76355877     0.02500
H1210       H  0.19536987  0.02422752  0.78126959     0.06000
H1211       H  0.28418633  0.04888610  0.73581667     0.05000
H1212       H  0.29167792  0.01826850  0.74847437    -0.00800
H1213       H  0.26560303  0.03722742  0.75985264     0.00700
H1214       H  0.20310073  0.95849462  0.68634329     0.04300
H1215       H  0.21948439  0.97405061  0.66287416     0.06300
H1216       H  0.19085203  0.98809544  0.67530896     0.07100
C1217       C  0.15584412  0.14402724  0.71797995    -0.22500
C1218       C  0.17553898  0.14825420  0.73409711     0.09500
C1219       C  0.20063573  0.13959986  0.72909854     0.09900
C1220       C  0.20519522  0.12609697  0.70840541    -0.17400
C1221       C  0.18531327  0.12150730  0.69263520    -0.27800
C1222       C  0.16049252  0.13094325  0.69719027     0.18200
C1223       C  0.16841776  0.15907479  0.75699162     0.12200
C1224       C  0.22254970  0.14465230  0.74546904    -0.12200
H1225       H  0.22418814  0.11871109  0.70468869     0.12500
C1226       C  0.13871098  0.12632282  0.68052619    -0.23000
H1227       H  0.13651322  0.15021341  0.72208725     0.08100
C1228       C  0.15809127  0.18399641  0.75929926     0.04500
C1229       C  0.14654680  0.19113004  0.78032974    -0.20200
C1230       C  0.14544558  0.17403483  0.79905825    -0.12500
C1231       C  0.15764173  0.14990247  0.79736888     0.13200
C1232       C  0.16872987  0.14265008  0.77623810    -0.23000
C1233       C  0.15880095  0.20286650  0.73953165    -0.06000
H1234       H  0.13730111  0.20965914  0.78183777     0.14700
C1235       C  0.15794990  0.13062269  0.81686985    -0.16200
H1236       H  0.17639601  0.12345265  0.77440400     0.09000
H1237       H  0.12052190  0.13498593  0.68679257     0.06900
H1238       H  0.13556155  0.10539980  0.67837612     0.08100
H1239       H  0.14335069  0.13490485  0.66341135     0.07100
H1240       H  0.21917878  0.13493381  0.76228932     0.02000
H1241       H  0.22444975  0.16560952  0.74842509     0.02500
H1242       H  0.24101159  0.13746798  0.73837050     0.06000
H1243       H  0.15075593  0.22175547  0.74467838     0.05000
H1244       H  0.14739576  0.19565462  0.72468754    -0.00800
H1245       H  0.17895016  0.20585184  0.73390242     0.00700
H1246       H  0.14754551  0.11301941  0.81148810     0.04300
H1247       H  0.14902839  0.13779220  0.83301097     0.06300
H1248       H  0.17809253  0.12547742  0.82098088     0.07100
C1249       C  0.84521169  0.79367315  0.22992468    -0.22500
C1250       C  0.83569729  0.81781579  0.23633989     0.09500
C1251       C  0.83715348  0.83843793  0.22045627     0.09900
C1252       C  0.84914947  0.83467598  0.19893213    -0.17400
C1253       C  0.86035004  0.81108444  0.19330642    -0.27800
C1254       C  0.85758150  0.79004860  0.20853100     0.18200
C1255       C  0.82999991  0.82279903  0.26108521     0.12200
C1256       C  0.82797296  0.86494920  0.22689343    -0.12200
H1257       H  0.85144345  0.85070271  0.18714365     0.12500
C1258       C  0.86810072  0.76383002  0.20296860    -0.23000
H1259       H  0.84432196  0.77798175  0.24222053     0.08100
C1260       C  0.80486967  0.82627473  0.26967346     0.04500
C1261       C  0.80144819  0.83738948  0.29173889    -0.20200
C1262       C  0.82271736  0.84446210  0.30522758    -0.12500
C1263       C  0.84763732  0.83758592  0.29778214     0.13200
C1264       C  0.85097229  0.82723119  0.27565189    -0.23000
C1265       C  0.78190415  0.81861537  0.25548079    -0.06000
H1266       H  0.78231971  0.84211421  0.29774200     0.14700
C1267       C  0.87119024  0.84156407  0.31253228    -0.16200
H1268       H  0.87023318  0.82371430  0.26927564     0.09000
H1269       H  0.85227532  0.74957563  0.20335982     0.06900
H1270       H  0.88266310  0.75841661  0.21610124     0.08100
H1271       H  0.87715998  0.76283008  0.18557712     0.07100
H1272       H  0.83840564  0.87190052  0.24244663     0.02000
H1273       H  0.80713576  0.86465771  0.23066773     0.02500
H1274       H  0.83126809  0.87891700  0.21266390     0.06000
H1275       H  0.76369214  0.82251186  0.26485064     0.05000
H1276       H  0.78283513  0.79775518  0.25169136    -0.00800
H1277       H  0.78152364  0.82926687  0.23886791     0.00700
H1278       H  0.88170494  0.82314508  0.31418749     0.04300
H1279       H  0.86655918  0.84805604  0.33034456     0.06300
H1280       H  0.88398445  0.85591690  0.30424558     0.07100
C1281       C  0.77609020  0.99502985  0.27503036    -0.22500
C1282       C  0.77176675  0.98129614  0.25450643     0.09500
C1283       C  0.77031206  0.95424215  0.25522404     0.09900
C1284       C  0.77461316  0.94150902  0.27629949    -0.17400
C1285       C  0.78010838  0.95522543  0.29663269    -0.27800
C1286       C  0.78024016  0.98236515  0.29613141     0.18200
C1287       C  0.77338710  0.99539350  0.23225473     0.12200
C1288       C  0.76464169  0.93879672  0.23372830    -0.12200
H1289       H  0.77450706  0.92072760  0.27678645     0.12500
C1290       C  0.78666440  0.99805363  0.31733401    -0.23000
H1291       H  0.77774920  0.01574583  0.27425313     0.08100
C1292       C  0.75487380  0.01361987  0.22528682     0.04500
C1293       C  0.75936023  0.02843811  0.20528917    -0.20200
C1294       C  0.78204799  0.02548390  0.19250908    -0.12500
C1295       C  0.80000152  0.00649698  0.19899611     0.13200
C1296       C  0.79552821  0.99189441  0.21888399    -0.23000
C1297       C  0.73052643  0.01740354  0.23890695    -0.06000
H1298       H  0.74559386  0.04287742  0.20005038     0.14700
C1299       C  0.82381412  0.00128859  0.18483452    -0.16200
H1300       H  0.80975306  0.97804076  0.22442433     0.09000
H1301       H  0.78687564  0.01893339  0.31352624     0.06900
H1302       H  0.80594945  0.99269696  0.32383584     0.08100
H1303       H  0.77215601  0.99467817  0.33109148     0.07100
H1304       H  0.78003282  0.94143250  0.22066000     0.02000
H1305       H  0.74608029  0.94506438  0.22623463     0.02500
H1306       H  0.76328738  0.91797220  0.23758996     0.06000
H1307       H  0.71786254  0.03189587  0.23069385     0.05000
H1308       H  0.73501649  0.02410364  0.25670220    -0.00800
H1309       H  0.71987295  0.99899549  0.23990468     0.00700
H1310       H  0.83667634  0.01822809  0.18502793     0.04300
H1311       H  0.81836953  0.99671652  0.16669755     0.06300
H1312       H  0.83485445  0.98477348  0.19174140     0.07100
C1313       C  0.80800827  0.89681942  0.47517028    -0.22500
C1314       C  0.78404309  0.90336687  0.48441723     0.09500
C1315       C  0.76391132  0.91045369  0.46951553     0.09900
C1316       C  0.76821220  0.91085973  0.44553207    -0.17400
C1317       C  0.79207953  0.90392297  0.43603480    -0.27800
C1318       C  0.81234492  0.89693623  0.45113367     0.18200
C1319       C  0.78094512  0.90405126  0.50988211     0.12200
C1320       C  0.73787154  0.91740090  0.47894857    -0.12200
H1321       H  0.75269985  0.91638468  0.43413197     0.12500
C1322       C  0.83879601  0.89049885  0.44226428    -0.23000
H1323       H  0.82342519  0.89177838  0.48689322     0.08100
C1324       C  0.77624654  0.88166236  0.52284384     0.04500
C1325       C  0.77479199  0.88329945  0.54709188    -0.20200
C1326       C  0.77804789  0.90683915  0.55872266    -0.12500
C1327       C  0.78224135  0.92942513  0.54543875     0.13200
C1328       C  0.78358055  0.92762073  0.52120140    -0.23000
C1329       C  0.77292118  0.85608210  0.51106833    -0.06000
H1330       H  0.77143771  0.86598284  0.55701506     0.14700
C1331       C  0.78633811  0.95539818  0.55639790    -0.16200
H1332       H  0.78719020  0.94465643  0.51093236     0.09000
H1333       H  0.83823969  0.87257175  0.43190285     0.06900
H1334       H  0.85256392  0.88741101  0.45666800     0.08100
H1335       H  0.84618335  0.90649075  0.43143096     0.07100
H1336       H  0.73946577  0.93436707  0.49049294     0.02000
H1337       H  0.72995643  0.90102062  0.48896167     0.02500
H1338       H  0.72414869  0.92210403  0.46487174     0.06000
H1339       H  0.76913959  0.84050946  0.52375420     0.05000
H1340       H  0.79058554  0.85112587  0.50128662    -0.00800
H1341       H  0.75649320  0.85697284  0.49887307     0.00700
H1342       H  0.80304616  0.95474272  0.56829828     0.04300
H1343       H  0.76887329  0.96129859  0.56603744     0.06300
H1344       H  0.79026687  0.97044614  0.54323833     0.07100
C1345       C  0.85792723  0.80129948  0.75728078    -0.22500
C1346       C  0.84240959  0.82315201  0.75737990     0.09500
C1347       C  0.83676695  0.83557371  0.77851741     0.09900
C1348       C  0.84856096  0.82702673  0.79895414    -0.17400
C1349       C  0.86619432  0.80671824  0.79846149    -0.27800
C1350       C  0.86993246  0.79286366  0.77758504     0.18200
C1351       C  0.83595726  0.83514802  0.73496288     0.12200
C1352       C  0.81947109  0.85868627  0.77920716    -0.12200
H1353       H  0.84551675  0.83746036  0.81498948     0.12500
C1354       C  0.88659121  0.76934733  0.77590617    -0.23000
H1355       H  0.86188476  0.79165238  0.74099471     0.08100
C1356       C  0.85332593  0.85232309  0.72444817     0.04500
C1357       C  0.84624552  0.86479940  0.70401595    -0.20200
C1358       C  0.82237267  0.86029626  0.69364279    -0.12500
C1359       C  0.80520730  0.84249581  0.70379953     0.13200
C1360       C  0.81228405  0.83008484  0.72444305    -0.23000
C1361       C  0.87923756  0.85772271  0.73496376    -0.06000
H1362       H  0.85941390  0.87833912  0.69608973     0.14700
C1363       C  0.77904477  0.83695800  0.69402681    -0.16200
H1364       H  0.79906489  0.81681089  0.73264841     0.09000
H1365       H  0.90200105  0.77266658  0.76297609     0.06900
H1366       H  0.87479258  0.75287173  0.76998276     0.08100
H1367       H  0.89547175  0.76391961  0.79261801     0.07100
H1368       H  0.80022100  0.85342019  0.77251908     0.02000
H1369       H  0.82760936  0.87423260  0.76829604     0.02500
H1370       H  0.81715362  0.86619254  0.79711693     0.06000
H1371       H  0.89035340  0.87177517  0.72453252     0.05000
H1372       H  0.89053489  0.83971774  0.73590864    -0.00800
H1373       H  0.87685546  0.86569049  0.75269064     0.00700
H1374       H  0.77760498  0.81631680  0.68946288     0.04300
H1375       H  0.77481595  0.84833150  0.67836050     0.06300
H1376       H  0.76417973  0.84156571  0.70718939     0.07100
C1377       C  0.78466571  0.98970557  0.72893148    -0.22500
C1378       C  0.75948065  0.98804826  0.73699325     0.09500
C1379       C  0.74086184  0.97538674  0.72351343     0.09900
C1380       C  0.74828512  0.96355127  0.70255221    -0.17400
C1381       C  0.77395119  0.96415212  0.69480020    -0.27800
C1382       C  0.79228036  0.97812973  0.70814832     0.18200
C1383       C  0.75434985  0.99891647  0.76028802     0.12200
C1384       C  0.71331459  0.97445346  0.73124844    -0.12200
H1385       H  0.73402344  0.95339779  0.69242819     0.12500
C1386       C  0.82004636  0.98120711  0.70111836    -0.23000
H1387       H  0.79870247  0.99975800  0.73943221     0.08100
C1388       C  0.75927092  0.98416139  0.78030936     0.04500
C1389       C  0.76317107  0.99661901  0.80156843    -0.20200
C1390       C  0.76276219  0.02341645  0.80316673    -0.12500
C1391       C  0.75559521  0.03805586  0.78362015     0.13200
C1392       C  0.75135472  0.02557027  0.76236366    -0.23000
C1393       C  0.76257271  0.95547716  0.77890632    -0.06000
H1394       H  0.76865508  0.98550615  0.81652773     0.14700
C1395       C  0.75410667  0.06691843  0.78423273    -0.16200
H1396       H  0.74783347  0.03689481  0.74693978     0.09000
H1397       H  0.82987049  0.96233647  0.70137214     0.06900
H1398       H  0.83074392  0.99393175  0.71316899     0.08100
H1399       H  0.82131979  0.98993801  0.68360735     0.07100
H1400       H  0.70579929  0.99427468  0.73303871     0.02000
H1401       H  0.71178238  0.96458185  0.74821938     0.02500
H1402       H  0.70110671  0.96402724  0.71859530     0.06000
H1403       H  0.76674060  0.94698567  0.79615360     0.05000
H1404       H  0.77873533  0.95068187  0.76713326    -0.00800
H1405       H  0.74476153  0.94651600  0.77223062     0.00700
H1406       H  0.76845050  0.07511315  0.77206766     0.04300
H1407       H  0.75775224  0.07496097  0.80173074     0.06300
H1408       H  0.73466009  0.07312213  0.77880721     0.07100
C1409       C  0.00776187  0.77801546  0.21843025    -0.22500
C1410       C  0.00353788  0.75501125  0.23026626     0.09500
C1411       C  0.98465667  0.73781561  0.22198224     0.09900
C1412       C  0.96957850  0.74474906  0.20265704    -0.17400
C1413       C  0.97300187  0.76849837  0.19153672    -0.27800
C1414       C  0.99322140  0.78483776  0.19905185     0.18200
C1415       C  0.01743711  0.75138840  0.25255444     0.12200
C1416       C  0.98056735  0.71218644  0.23340115    -0.12200
H1417       H  0.95456582  0.73196079  0.19669851     0.12500
C1418       C  0.00010499  0.80948188  0.18672392    -0.23000
H1419       H  0.02213803  0.79123190  0.22491698     0.08100
C1420       C  0.04454164  0.75088984  0.25352582     0.04500
C1421       C  0.05688437  0.75494752  0.27485358    -0.20200
C1422       C  0.04281390  0.75886525  0.29531816    -0.12500
C1423       C  0.01576091  0.75687866  0.29468683     0.13200
C1424       C  0.00342749  0.75352447  0.27325782    -0.23000
C1425       C  0.06047987  0.74646197  0.23206590    -0.06000
H1426       H  0.07763792  0.75598119  0.27544356     0.14700
C1427       C  0.99968660  0.76002197  0.31623489    -0.16200
H1428       H  0.98267471  0.75423906  0.27247752     0.09000
H1429       H  0.01809169  0.81802482  0.19356319     0.06900
H1430       H  0.98481361  0.82401266  0.18913836     0.08100
H1431       H  0.00311572  0.80565752  0.16798607     0.07100
H1432       H  0.97424517  0.71478494  0.25161371     0.02000
H1433       H  0.99876402  0.70114585  0.23313647     0.02500
H1434       H  0.96570198  0.70073638  0.22429049     0.06000
H1435       H  0.08126579  0.74556719  0.23617111     0.05000
H1436       H  0.05767090  0.76217631  0.21940065    -0.00800
H1437       H  0.05488208  0.72797557  0.22395437     0.00700
H1438       H  0.00354499  0.77892704  0.32428357     0.04300
H1439       H  0.00431936  0.74459089  0.32878844     0.06300
H1440       H  0.97885200  0.75888552  0.31239682     0.07100
C1441       C  0.18563725  0.81921517  0.28127384    -0.22500
C1442       C  0.17354560  0.81420443  0.26004871     0.09500
C1443       C  0.15169766  0.79827834  0.25936859     0.09900
C1444       C  0.14082280  0.78993422  0.28022175    -0.17400
C1445       C  0.15119219  0.79744545  0.30157087    -0.27800
C1446       C  0.17453554  0.81118588  0.30220439     0.18200
C1447       C  0.18001852  0.83029239  0.23984579     0.12200
C1448       C  0.13864918  0.79190643  0.23678033    -0.12200
H1449       H  0.12285952  0.77946312  0.27993016     0.12500
C1450       C  0.18701845  0.81953242  0.32451217    -0.23000
H1451       H  0.20244962  0.83145048  0.28163558     0.08100
C1452       C  0.16981037  0.85526579  0.23813945     0.04500
C1453       C  0.17316507  0.86904670  0.21762972    -0.20200
C1454       C  0.18634610  0.85851113  0.19865033    -0.12500
C1455       C  0.19741511  0.83379812  0.20066282     0.13200
C1456       C  0.19398872  0.81991992  0.22132665    -0.23000
C1457       C  0.15463069  0.86711868  0.25770399    -0.06000
H1458       H  0.16481115  0.88803929  0.21622365     0.14700
C1459       C  0.21324994  0.82220174  0.18146150    -0.16200
H1460       H  0.20175583  0.80069114  0.22291609     0.09000
H1461       H  0.20685429  0.81186408  0.32522302     0.06900
H1462       H  0.18785418  0.84079815  0.32517985     0.08100
H1463       H  0.17669352  0.81266924  0.34011645     0.07100
H1464       H  0.15219720  0.78148658  0.22528840     0.02000
H1465       H  0.13232432  0.80978553  0.22805121     0.02500
H1466       H  0.12152417  0.77957395  0.23944974     0.06000
H1467       H  0.14760054  0.88659598  0.25321420     0.05000
H1468       H  0.16685262  0.86888076  0.27336058    -0.00800
H1469       H  0.13772115  0.85497839  0.26178514     0.00700
H1470       H  0.22155669  0.80344558  0.18661952     0.04300
H1471       H  0.22934676  0.83525175  0.17699055     0.06300
H1472       H  0.20117375  0.81886008  0.16593428     0.07100
C1473       C  0.97790121  0.83702807  0.39505259    -0.22500
C1474       C  0.96293602  0.84429158  0.37592693     0.09500
C1475       C  0.97175652  0.83904476  0.35328671     0.09900
C1476       C  0.99558202  0.82727499  0.35022732    -0.17400
C1477       C  0.01060580  0.81965762  0.36918956    -0.27800
C1478       C  0.00164833  0.82454432  0.39196699     0.18200
C1479       C  0.93758559  0.85659706  0.37936726     0.12200
C1480       C  0.95575059  0.84531212  0.33225730    -0.12200
H1481       H  0.00238950  0.82369397  0.33275740     0.12500
C1482       C  0.01731535  0.81743487  0.41292484    -0.23000
H1483       H  0.97090728  0.84105656  0.41239488     0.08100
C1484       C  0.91565531  0.84182970  0.38431756     0.04500
C1485       C  0.89131825  0.85293137  0.38198381    -0.20200
C1486       C  0.88820691  0.87830061  0.37400576    -0.12500
C1487       C  0.91048955  0.89356313  0.37043102     0.13200
C1488       C  0.93482507  0.88253557  0.37358262    -0.23000
C1489       C  0.91788248  0.81391868  0.39074979    -0.06000
H1490       H  0.87461230  0.84109003  0.38516802     0.14700
C1491       C  0.90922397  0.92103713  0.36233197    -0.16200
H1492       H  0.95189031  0.89367419  0.36985460     0.09000
H1493       H  0.01965578  0.79630746  0.41381754     0.06900
H1494       H  0.00796790  0.82378146  0.42926987     0.08100
H1495       H  0.03647872  0.82667399  0.41189265     0.07100
H1496       H  0.95269042  0.86631827  0.33106744     0.02000
H1497       H  0.93689129  0.83549615  0.33350667     0.02500
H1498       H  0.96514442  0.83896765  0.31593704     0.06000
H1499       H  0.89880420  0.80499354  0.39365181     0.05000
H1500       H  0.92914993  0.81198154  0.40696381    -0.00800
H1501       H  0.92763327  0.80322501  0.37660623     0.00700
H1502       H  0.92854254  0.92995178  0.36132529     0.04300
H1503       H  0.89758103  0.93258904  0.37462580     0.06300
H1504       H  0.90079602  0.92194217  0.34468566     0.07100
C1505       C  0.11732486  0.91356279  0.37823122    -0.22500
C1506       C  0.14288391  0.91859862  0.37199890     0.09500
C1507       C  0.15883743  0.89811397  0.36510730     0.09900
C1508       C  0.14871427  0.87322806  0.36403077    -0.17400
C1509       C  0.12278112  0.86826314  0.36895864    -0.27800
C1510       C  0.10695235  0.88867903  0.37656904     0.18200
C1511       C  0.15200843  0.94559408  0.37062085     0.12200
C1512       C  0.18624490  0.90262589  0.35781925    -0.12200
H1513       H  0.16092287  0.85768506  0.35823633     0.12500
C1514       C  0.07930156  0.88440015  0.38316107    -0.23000
H1515       H  0.10523098  0.92936639  0.38367007     0.08100
C1516       C  0.14397591  0.96176881  0.35241572     0.04500
C1517       C  0.15449219  0.98641485  0.35048760    -0.20200
C1518       C  0.17344528  0.99517937  0.36587459    -0.12500
C1519       C  0.18142218  0.97907722  0.38421387     0.13200
C1520       C  0.17033959  0.95455568  0.38652968    -0.23000
C1521       C  0.12506461  0.95271013  0.33442178    -0.06000
H1522       H  0.14849201  0.99864772  0.33630281     0.14700
C1523       C  0.20122524  0.98775937  0.40151437    -0.16200
H1524       H  0.17640847  0.94205254  0.40047783     0.09000
H1525       H  0.07035545  0.90214787  0.39010302     0.06900
H1526       H  0.07801685  0.86937002  0.39674780     0.08100
H1527       H  0.06806509  0.87841810  0.36775908     0.07100
H1528       H  0.19738561  0.91053678  0.37255525     0.02000
H1529       H  0.18683897  0.91635213  0.34311508     0.02500
H1530       H  0.19572602  0.88460720  0.35214966     0.06000
H1531       H  0.12163350  0.96748731  0.32091760     0.05000
H1532       H  0.10638699  0.94826934  0.34272757    -0.00800
H1533       H  0.13253376  0.93524136  0.32570421     0.00700
H1534       H  0.20425273  0.97325452  0.41533137     0.04300
H1535       H  0.19490326  0.00588242  0.40987456     0.06300
H1536       H  0.21988846  0.99089511  0.39269835     0.07100
C1537       C  0.97099724  0.84714556  0.59682916    -0.22500
C1538       C  0.94945955  0.83735155  0.60847679     0.09500
C1539       C  0.95213361  0.81496000  0.62207558     0.09900
C1540       C  0.97643521  0.80360961  0.62450975    -0.17400
C1541       C  0.99829137  0.81438877  0.61410482    -0.27800
C1542       C  0.99538918  0.83601914  0.59951121     0.18200
C1543       C  0.92502055  0.85222263  0.60840408     0.12200
C1544       C  0.92963286  0.80379358  0.63503752    -0.12200
H1545       H  0.97863699  0.78708338  0.63572723     0.12500
C1546       C  0.01750472  0.84777739  0.58644214    -0.23000
H1547       H  0.96890543  0.86410458  0.58613731     0.08100
C1548       C  0.92253959  0.87485797  0.62163276     0.04500
C1549       C  0.89840333  0.88647359  0.62393089    -0.20200
C1550       C  0.87628364  0.87599834  0.61358520    -0.12500
C1551       C  0.87918296  0.85416638  0.59898571     0.13200
C1552       C  0.90352281  0.84263663  0.59663320    -0.23000
C1553       C  0.94516324  0.88619646  0.63426736    -0.06000
H1554       H  0.89673102  0.90339910  0.63474251     0.14700
C1555       C  0.85684841  0.84225793  0.58636831    -0.16200
H1556       H  0.90566077  0.82545489  0.58621585     0.09000
H1557       H  0.02057695  0.86775963  0.59250234     0.06900
H1558       H  0.01299016  0.84809098  0.56763239     0.08100
H1559       H  0.03564820  0.83697926  0.58850743     0.07100
H1560       H  0.91460323  0.79768618  0.62260087     0.02000
H1561       H  0.92155341  0.81837116  0.64704188     0.02500
H1562       H  0.93523637  0.78678210  0.64544146     0.06000
H1563       H  0.93972263  0.90345105  0.64444427     0.05000
H1564       H  0.96014326  0.89201716  0.62164121    -0.00800
H1565       H  0.95324595  0.87184117  0.64643814     0.00700
H1566       H  0.86289955  0.82575596  0.57547333     0.04300
H1567       H  0.84788876  0.85665385  0.57474477     0.06300
H1568       H  0.84250448  0.83502998  0.59901536     0.07100
C1569       C  0.17494488  0.94346743  0.60827231    -0.22500
C1570       C  0.14832953  0.94161550  0.61130371     0.09500
C1571       C  0.13385418  0.96418866  0.61424765     0.09900
C1572       C  0.14649059  0.98785302  0.61610354    -0.17400
C1573       C  0.17344349  0.98975306  0.61507555    -0.27800
C1574       C  0.18772567  0.96724798  0.60978231     0.18200
C1575       C  0.13633170  0.91593403  0.61435673     0.12200
C1576       C  0.10501263  0.96324652  0.61581393    -0.12200
H1577       H  0.13511141  0.00487082  0.61927780     0.12500
C1578       C  0.21633387  0.96774193  0.60601989    -0.23000
H1579       H  0.18589665  0.92603105  0.60566004     0.08100
C1580       C  0.13156905  0.89906382  0.59569976     0.04500
C1581       C  0.11998508  0.87509284  0.60006338    -0.20200
C1582       C  0.11267086  0.86783155  0.62263652    -0.12500
C1583       C  0.11766233  0.88488780  0.64129564     0.13200
C1584       C  0.12948712  0.90854525  0.63686166    -0.23000
C1585       C  0.13838422  0.90652814  0.57125253    -0.06000
H1586       H  0.11648135  0.86203215  0.58578489     0.14700
C1587       C  0.11165406  0.87800980  0.66613025    -0.16200
H1588       H  0.13349190  0.92151761  0.65112132     0.09000
H1589       H  0.22387083  0.94856214  0.60113608     0.06900
H1590       H  0.22631270  0.97370503  0.62209641     0.08100
H1591       H  0.22108471  0.98119639  0.59172547     0.07100
H1592       H  0.09898516  0.95193462  0.63116697     0.02000
H1593       H  0.09713431  0.95420486  0.59990340     0.02500
H1594       H  0.09656896  0.98271421  0.61746147     0.06000
H1595       H  0.13300543  0.89134839  0.55863919     0.05000
H1596       H  0.15935460  0.90981547  0.56983611    -0.00800
H1597       H  0.12809948  0.92439742  0.56648286     0.00700
H1598       H  0.12145291  0.85984908  0.67078278     0.04300
H1599       H  0.09064525  0.87591030  0.66851879     0.06300
H1600       H  0.11825924  0.89301967  0.67843148     0.07100
C1601       C  0.10985898  0.76378541  0.52114687    -0.22500
C1602       C  0.09182267  0.77849361  0.50912202     0.09500
C1603       C  0.07246618  0.79162695  0.52136355     0.09900
C1604       C  0.07154504  0.78966404  0.54558327    -0.17400
C1605       C  0.08953289  0.77482990  0.55773098    -0.27800
C1606       C  0.10885845  0.76152368  0.54533415     0.18200
C1607       C  0.09255846  0.77842735  0.48356657     0.12200
C1608       C  0.05283719  0.80761819  0.50882933    -0.12200
H1609       H  0.05681643  0.79990127  0.55512536     0.12500
C1610       C  0.12794850  0.74381912  0.55666183    -0.23000
H1611       H  0.12441444  0.75342371  0.51149488     0.08100
C1612       C  0.10796125  0.79571304  0.47105862     0.04500
C1613       C  0.10799744  0.79463095  0.44678318    -0.20200
C1614       C  0.09299703  0.77657345  0.43463430    -0.12500
C1615       C  0.07755966  0.75911401  0.44750695     0.13200
C1616       C  0.07765115  0.76036485  0.47179400    -0.23000
C1617       C  0.12428116  0.81529593  0.48335843    -0.06000
H1618       H  0.11986252  0.80809872  0.43730379     0.14700
C1619       C  0.06102543  0.73892105  0.43620411    -0.16200
H1620       H  0.06600280  0.74714558  0.48178480     0.09000
H1621       H  0.14765257  0.75125421  0.55383389     0.06900
H1622       H  0.12645693  0.72448749  0.54868083     0.08100
H1623       H  0.12490413  0.74138303  0.57550355     0.07100
H1624       H  0.04174292  0.79537053  0.49669320     0.02000
H1625       H  0.06258515  0.82301494  0.49886506     0.02500
H1626       H  0.03913110  0.81676414  0.52105492     0.06000
H1627       H  0.13516982  0.82743635  0.47095499     0.05000
H1628       H  0.13825789  0.80545220  0.49479559    -0.00800
H1629       H  0.11194545  0.82802764  0.49403143     0.00700
H1630       H  0.05083911  0.72692109  0.44919341     0.04300
H1631       H  0.07309421  0.72589286  0.42556197     0.06300
H1632       H  0.04618985  0.74817035  0.42525515     0.07100
C1633       C  0.99257305  0.73425254  0.71046097    -0.22500
C1634       C  0.00308755  0.74194475  0.73177334     0.09500
C1635       C  0.02768602  0.75332213  0.73222848     0.09900
C1636       C  0.04045051  0.75815667  0.71129211    -0.17400
C1637       C  0.02912379  0.75221337  0.68993602    -0.27800
C1638       C  0.00512624  0.73963091  0.68943416     0.18200
C1639       C  0.98639780  0.74297959  0.75262958     0.12200
C1640       C  0.03977024  0.76197230  0.75465834    -0.12200
H1641       H  0.05878997  0.76799224  0.71150403     0.12500
C1642       C  0.99141829  0.73334938  0.66715447    -0.23000
H1643       H  0.97359947  0.72573879  0.71014135     0.08100
C1644       C  0.96785420  0.76252744  0.75467628     0.04500
C1645       C  0.95625144  0.76692785  0.77614171    -0.20200
C1646       C  0.96260305  0.75249529  0.79584819    -0.12500
C1647       C  0.98020414  0.73192604  0.79358949     0.13200
C1648       C  0.99168224  0.72729389  0.77183891    -0.23000
C1649       C  0.96138650  0.77994026  0.73462940    -0.06000
H1650       H  0.94304125  0.78285196  0.77787288     0.14700
C1651       C  0.98892473  0.71573375  0.81371009    -0.16200
H1652       H  0.00605062  0.71238815  0.77020899     0.09000
H1653       H  0.97284785  0.74374681  0.66661078     0.06900
H1654       H  0.98762838  0.71241680  0.66634891     0.08100
H1655       H  0.00250253  0.73874018  0.65149769     0.07100
H1656       H  0.04274256  0.74522994  0.76620652     0.02000
H1657       H  0.02714810  0.77610503  0.76346146     0.02500
H1658       H  0.05871037  0.77119681  0.75174732     0.06000
H1659       H  0.94709539  0.79476553  0.73957525     0.05000
H1660       H  0.95309741  0.76856465  0.72020522    -0.00800
H1661       H  0.97893501  0.78993302  0.72849406     0.00700
H1662       H  0.98411948  0.69533249  0.81028089     0.04300
H1663       H  0.98018487  0.72123960  0.83043857     0.06300
H1664       H  0.01003138  0.71752693  0.81566299     0.07100
C1665       C  0.16038165  0.80418816  0.72506347    -0.22500
C1666       C  0.14948751  0.82310528  0.73926479     0.09500
C1667       C  0.12582868  0.83420294  0.73319742     0.09900
C1668       C  0.11365669  0.82632156  0.71287524    -0.17400
C1669       C  0.12461176  0.80779210  0.69819328    -0.27800
C1670       C  0.14810260  0.79611814  0.70461847     0.18200
C1671       C  0.16352332  0.83253175  0.75975557     0.12200
C1672       C  0.11373085  0.85493299  0.74783907    -0.12200
H1673       H  0.09575175  0.83540626  0.70801967     0.12500
C1674       C  0.16041545  0.77472834  0.69100129    -0.23000
H1675       H  0.17854643  0.79568202  0.72997891     0.08100
C1676       C  0.15786264  0.82353386  0.78221924     0.04500
C1677       C  0.16754121  0.83687353  0.80142956    -0.20200
C1678       C  0.18254260  0.85907617  0.79857152    -0.12500
C1679       C  0.19006381  0.86660114  0.77595030     0.13200
C1680       C  0.18013202  0.85337337  0.75682389    -0.23000
C1681       C  0.14079467  0.80055295  0.78587023    -0.06000
H1682       H  0.16196316  0.83088485  0.81871158     0.14700
C1683       C  0.20838885  0.88838706  0.77121573    -0.16200
H1684       H  0.18463951  0.85993299  0.73945079     0.09000
H1685       H  0.16345851  0.75796089  0.70253568     0.06900
H1686       H  0.17928211  0.78119438  0.68423635     0.08100
H1687       H  0.14861367  0.76797481  0.67632689     0.07100
H1688       H  0.12686019  0.87164517  0.74903804     0.02000
H1689       H  0.10978927  0.84757047  0.76553191     0.02500
H1690       H  0.09531336  0.86169392  0.74038235     0.06000
H1691       H  0.13827088  0.79613482  0.80457623     0.05000
H1692       H  0.14941591  0.78353496  0.77731321    -0.00800
H1693       H  0.12156062  0.80410954  0.77833361     0.00700
H1694       H  0.22400536  0.88157705  0.75964442     0.04300
H1695       H  0.21778755  0.89581330  0.78705861     0.06300
H1696       H  0.19807034  0.90428804  0.76247808     0.07100
C1697       C  0.86529807  0.17574360  0.25437059    -0.22500
C1698       C  0.83886209  0.17157208  0.25658432     0.09500
C1699       C  0.82706934  0.17441228  0.27849096     0.09900
C1700       C  0.84234248  0.17991329  0.29795197    -0.17400
C1701       C  0.86908599  0.18230791  0.29592660    -0.27800
C1702       C  0.88055999  0.18125479  0.27369993     0.18200
C1703       C  0.82531625  0.16037091  0.23639583     0.12200
C1704       C  0.79851444  0.17141361  0.28132867    -0.12200
H1705       H  0.83353322  0.18114243  0.31495718     0.12500
C1706       C  0.90881903  0.18607662  0.27015032    -0.23000
H1707       H  0.87425076  0.17348271  0.23749983     0.08100
C1708       C  0.82243080  0.17386411  0.21532404     0.04500
C1709       C  0.81601099  0.16029085  0.19507501    -0.20200
C1710       C  0.81296841  0.13356546  0.19551592    -0.12500
C1711       C  0.81347430  0.12052404  0.21702193     0.13200
C1712       C  0.81961703  0.13413760  0.23718878    -0.23000
C1713       C  0.82677362  0.20238190  0.21413020    -0.06000
H1714       H  0.81512665  0.17029678  0.17861612     0.14700
C1715       C  0.80811737  0.09217198  0.21883184    -0.16200
H1716       H  0.82180285  0.12388009  0.25341494     0.09000
H1717       H  0.91400415  0.18636011  0.25146030     0.06900
H1718       H  0.92028286  0.17073034  0.27844129     0.08100
H1719       H  0.91411131  0.20496767  0.27766249     0.07100
H1720       H  0.79251877  0.15170501  0.27652718     0.02000
H1721       H  0.78850082  0.18539117  0.27000369     0.02500
H1722       H  0.79238297  0.17493033  0.29950939     0.06000
H1723       H  0.82304173  0.20998184  0.19646698     0.05000
H1724       H  0.84688440  0.20706565  0.21870325    -0.00800
H1725       H  0.81365270  0.21220855  0.22643329     0.00700
H1726       H  0.82366084  0.08110724  0.21036323     0.04300
H1727       H  0.78944135  0.08766198  0.21054393     0.06300
H1728       H  0.80711287  0.08575192  0.23717178     0.07100
C1729       C  0.01036393  0.20980685  0.27011737    -0.22500
C1730       C  0.00428951  0.23168570  0.25715797     0.09500
C1731       C  0.98558320  0.24895646  0.26560668     0.09900
C1732       C  0.97271612  0.24343553  0.28652266    -0.17400
C1733       C  0.97797300  0.22083900  0.29878315    -0.27800
C1734       C  0.99746059  0.20416561  0.29081354     0.18200
C1735       C  0.01599453  0.23424205  0.23377051     0.12200
C1736       C  0.97902008  0.27293789  0.25239719    -0.12200
H1737       H  0.95777179  0.25613682  0.29275604     0.12500
C1738       C  0.00455900  0.18023930  0.30403590    -0.23000
H1739       H  0.02464615  0.19657605  0.26352147     0.08100
C1740       C  0.04236002  0.23958486  0.23071213     0.04500
C1741       C  0.05342965  0.23688968  0.20858026    -0.20200
C1742       C  0.03877021  0.22859965  0.18963316    -0.12500
C1743       C  0.01213777  0.22454555  0.19248039     0.13200
C1744       C  0.00108365  0.22752313  0.21448956    -0.23000
C1745       C  0.05894075  0.24727254  0.25091473    -0.06000
H1746       H  0.07392697  0.23948756  0.20640801     0.14700
C1747       C  0.99505079  0.21605955  0.17284185    -0.16200
H1748       H  0.98089933  0.22321257  0.21686613     0.09000
H1749       H  0.02086896  0.16997067  0.29582023     0.06900
H1750       H  0.98804928  0.16683352  0.30463047     0.08100
H1751       H  0.01024460  0.18539590  0.32199035     0.07100
H1752       H  0.97126440  0.26788039  0.23507997     0.02000
H1753       H  0.99651114  0.28484406  0.25018528     0.02500
H1754       H  0.96438370  0.28458494  0.26162709     0.06000
H1755       H  0.07898034  0.25121576  0.24541668     0.05000
H1756       H  0.05942967  0.23167963  0.26398375    -0.00800
H1757       H  0.05110885  0.26491833  0.25904406     0.00700
H1758       H  0.98693444  0.19684655  0.17675252     0.04300
H1759       H  0.00526814  0.21499723  0.15601944     0.06300
H1760       H  0.97907730  0.22994072  0.17081059     0.07100
C1761       C  0.04861754  0.16889008  0.38026831    -0.22500
C1762       C  0.04916234  0.14237462  0.38412741     0.09500
C1763       C  0.02593787  0.12889260  0.38698268     0.09900
C1764       C  0.00260947  0.14188906  0.38390795    -0.17400
C1765       C  0.00202290  0.16806285  0.37814595    -0.27800
C1766       C  0.02537745  0.18194623  0.37699259     0.18200
C1767       C  0.07376298  0.12871718  0.38045401     0.12200
C1768       C  0.02587495  0.10061907  0.39228315    -0.12200
H1769       H  0.98473965  0.13128861  0.38485985     0.12500
C1770       C  0.02697206  0.20990709  0.37045614    -0.23000
H1771       H  0.06656249  0.17911418  0.37797331     0.08100
C1772       C  0.08069105  0.12050277  0.35800493     0.04500
C1773       C  0.10484971  0.10956982  0.35434301    -0.20200
C1774       C  0.12270224  0.10700992  0.37245403    -0.12500
C1775       C  0.11543057  0.11458727  0.39518635     0.13200
C1776       C  0.09094501  0.12533352  0.39887793    -0.23000
C1777       C  0.06282209  0.12397968  0.33768314    -0.06000
H1778       H  0.11016201  0.10393580  0.33688828     0.14700
C1779       C  0.13311021  0.11125081  0.41561363    -0.16200
H1780       H  0.08535866  0.13162951  0.41607918     0.09000
H1781       H  0.03877245  0.21200226  0.35452159     0.06900
H1782       H  0.03624868  0.22078249  0.38472534     0.08100
H1783       H  0.00818573  0.21883057  0.36693721     0.07100
H1784       H  0.03613511  0.09716017  0.40884227     0.02000
H1785       H  0.03562215  0.08987501  0.37818821     0.02500
H1786       H  0.00606639  0.09300421  0.39403168     0.06000
H1787       H  0.07131558  0.11663917  0.32130189     0.05000
H1788       H  0.05851716  0.14465331  0.33525815    -0.00800
H1789       H  0.04465175  0.11344722  0.34081442     0.00700
H1790       H  0.15019420  0.12375388  0.41367117     0.04300
H1791       H  0.13921138  0.09090020  0.41690906     0.06300
H1792       H  0.12358544  0.11655803  0.43217423     0.07100
C1793       C  0.89510672  0.07074490  0.38205223    -0.22500
C1794       C  0.87045978  0.06488666  0.37386603     0.09500
C1795       C  0.85517095  0.08450863  0.36435529     0.09900
C1796       C  0.86506748  0.10942182  0.36272919    -0.17400
C1797       C  0.89008647  0.11529316  0.37007613    -0.27800
C1798       C  0.90506584  0.09578619  0.38055776     0.18200
C1799       C  0.86155528  0.03784009  0.37353946     0.12200
C1800       C  0.82878920  0.07893262  0.35495096    -0.12200
H1801       H  0.85351177  0.12419755  0.35466356     0.12500
C1802       C  0.93119101  0.10059447  0.39086351    -0.23000
H1803       H  0.90670903  0.05561868  0.38950343     0.08100
C1804       C  0.86968182  0.02096606  0.35595338     0.04500
C1805       C  0.85857495  0.99657542  0.35434939    -0.20200
C1806       C  0.83893832  0.98853027  0.36957356    -0.12500
C1807       C  0.83134352  0.00537291  0.38771213     0.13200
C1808       C  0.84291571  0.02973343  0.38948912    -0.23000
C1809       C  0.88937718  0.02907923  0.33823996    -0.06000
H1810       H  0.86487920  0.98403521  0.34048436     0.14700
C1811       C  0.81080257  0.99833901  0.40497566    -0.16200
H1812       H  0.83677609  0.04294348  0.40290530     0.09000
H1813       H  0.94594427  0.09008941  0.38071894     0.06900
H1814       H  0.93150545  0.09353986  0.40902426     0.08100
H1815       H  0.93639925  0.12114806  0.39157348     0.07100
H1816       H  0.81623665  0.07165301  0.36903871     0.02000
H1817       H  0.83006414  0.06429933  0.34099410     0.02500
H1818       H  0.81967007  0.09635142  0.34758142     0.06000
H1819       H  0.89318569  0.01372856  0.32532409     0.05000
H1820       H  0.90773478  0.03371848  0.34700230    -0.00800
H1821       H  0.88245887  0.04625603  0.32875763     0.00700
H1822       H  0.80776106  0.01373617  0.41801146     0.04300
H1823       H  0.81640225  0.98069180  0.41446007     0.06300
H1824       H  0.79230272  0.99525149  0.39589211     0.07100
C1825       C  0.04920889  0.15935613  0.62942206    -0.22500
C1826       C  0.05180168  0.13894389  0.61376675     0.09500
C1827       C  0.03008301  0.13019914  0.60148014     0.09900
C1828       C  0.00612746  0.14166793  0.60563474    -0.17400
C1829       C  0.00343824  0.16180467  0.62162877    -0.27800
C1830       C  0.02536193  0.17087521  0.63363687     0.18200
C1831       C  0.07690518  0.12555205  0.61251718     0.12200
C1832       C  0.03220426  0.10892090  0.58390725    -0.12200
H1833       H  0.98933129  0.13475807  0.59649182     0.12500
C1834       C  0.02440516  0.19152223  0.65199305    -0.23000
H1835       H  0.06582127  0.16568573  0.63917930     0.08100
C1836       C  0.09897682  0.13730973  0.60313011     0.04500
C1837       C  0.12291944  0.12519514  0.60547933    -0.20200
C1838       C  0.12536102  0.10166392  0.61719946    -0.12500
C1839       C  0.10280901  0.08915242  0.62522498     0.13200
C1840       C  0.07900974  0.10139243  0.62289550    -0.23000
C1841       C  0.09728335  0.16271094  0.59081358    -0.06000
H1842       H  0.13994804  0.13477715  0.59905112     0.14700
C1843       C  0.10336775  0.06292800  0.63627444    -0.16200
H1844       H  0.06194419  0.09245808  0.63001831     0.09000
H1845       H  0.03633189  0.20806602  0.64643606     0.06900
H1846       H  0.03222218  0.18388200  0.66850218     0.08100
H1847       H  0.00489725  0.19859022  0.65578153     0.07100
H1848       H  0.03852782  0.09094721  0.59241978     0.02000
H1849       H  0.04631831  0.11433533  0.57033097     0.02500
H1850       H  0.01354743  0.10505585  0.57531839     0.06000
H1851       H  0.11619995  0.16884196  0.58388852     0.05000
H1852       H  0.09045189  0.17778273  0.60291406    -0.00800
H1853       H  0.08372418  0.16113402  0.57605428     0.00700
H1854       H  0.11282530  0.06381241  0.65346738     0.04300
H1855       H  0.11365746  0.04927200  0.62478690     0.06300
H1856       H  0.08374661  0.05525064  0.63915653     0.07100
C1857       C  0.89120775  0.06289170  0.61604008    -0.22500
C1858       C  0.86789801  0.06152042  0.60406344     0.09500
C1859       C  0.85770143  0.08392507  0.59394324     0.09900
C1860       C  0.86993180  0.10754431  0.59777877    -0.17400
C1861       C  0.89213439  0.10931005  0.61153735    -0.27800
C1862       C  0.90372874  0.08637151  0.61960365     0.18200
C1863       C  0.85293303  0.03734488  0.60546079     0.12200
C1864       C  0.83372392  0.08299051  0.57941097    -0.12200
H1865       H  0.86123740  0.12485877  0.59101754     0.12500
C1866       C  0.92909667  0.08622342  0.63215645    -0.23000
H1867       H  0.89897616  0.04562032  0.62377224     0.08100
C1868       C  0.86166754  0.01410276  0.59570808     0.04500
C1869       C  0.84845728  0.99125203  0.60068037    -0.20200
C1870       C  0.82685833  0.99103907  0.61531667    -0.12500
C1871       C  0.81781426  0.01457078  0.62465734     0.13200
C1872       C  0.83087803  0.03730812  0.61935634    -0.23000
C1873       C  0.88488851  0.01334793  0.58014484    -0.06000
H1874       H  0.85541284  0.97330439  0.59356838     0.14700
C1875       C  0.79579227  0.01683304  0.64158630    -0.16200
H1876       H  0.82461646  0.05510061  0.62728001     0.09000
H1877       H  0.93636860  0.06640869  0.63471348     0.06900
H1878       H  0.92707144  0.09495000  0.64960312     0.08100
H1879       H  0.94364090  0.09686944  0.62186950     0.07100
H1880       H  0.81714138  0.07662329  0.58999432     0.02000
H1881       H  0.83652219  0.06942401  0.56477674     0.02500
H1882       H  0.82897404  0.10209032  0.57207256     0.06000
H1883       H  0.88842439  0.99375325  0.57328922     0.05000
H1884       H  0.90224271  0.01936000  0.58981266    -0.00800
H1885       H  0.88198401  0.02641951  0.56519510     0.00700
H1886       H  0.80247076  0.02679040  0.65750367     0.04300
H1887       H  0.78763843  0.99839880  0.64732374     0.06300
H1888       H  0.78023038  0.02837759  0.63364940     0.07100
C1889       C  0.94002248  0.20121037  0.51857498    -0.22500
C1890       C  0.91700735  0.20751049  0.50749539     0.09500
C1891       C  0.89507315  0.21329992  0.52072893     0.09900
C1892       C  0.89661323  0.21262697  0.54494035    -0.17400
C1893       C  0.91962775  0.20631895  0.55630531    -0.27800
C1894       C  0.94170271  0.20053308  0.54286588     0.18200
C1895       C  0.91622017  0.20779007  0.48191942     0.12200
C1896       C  0.87009069  0.22031454  0.50927686    -0.12200
H1897       H  0.87966994  0.21713430  0.55503221     0.12500
C1898       C  0.96686277  0.19293293  0.55374047    -0.23000
H1899       H  0.95668359  0.19671204  0.50810353     0.08100
C1900       C  0.92452711  0.22929086  0.46922174     0.04500
C1901       C  0.92310145  0.22879033  0.44496148    -0.20200
C1902       C  0.91365101  0.20718917  0.43307026    -0.12500
C1903       C  0.90549619  0.18547238  0.44601805     0.13200
C1904       C  0.90684726  0.18618395  0.47030418    -0.23000
C1905       C  0.93482137  0.25274275  0.48132958    -0.06000
H1906       H  0.92939559  0.24543051  0.43525080     0.14700
C1907       C  0.89611604  0.16115308  0.43461228    -0.16200
H1908       H  0.90064838  0.16975466  0.48037622     0.09000
H1909       H  0.98148031  0.18793120  0.54046610     0.06900
H1910       H  0.96408208  0.17589234  0.56501622     0.08100
H1911       H  0.97463825  0.20910709  0.56409630     0.07100
H1912       H  0.86341529  0.20420502  0.49822797     0.02000
H1913       H  0.87280385  0.23762963  0.49835092     0.02500
H1914       H  0.85485562  0.22450901  0.52221050     0.06000
H1915       H  0.94030108  0.26798323  0.46882408     0.05000
H1916       H  0.95209659  0.24758021  0.49153195    -0.00800
H1917       H  0.92000581  0.26064834  0.49318446     0.00700
H1918       H  0.89208452  0.14585257  0.44750424     0.04300
H1919       H  0.91091800  0.15374396  0.42247102     0.06300
H1920       H  0.87800398  0.16487200  0.42512118     0.07100
C1921       C  0.97349215  0.21778179  0.73569696    -0.22500
C1922       C  0.99370580  0.23529369  0.73345331     0.09500
C1923       C  0.99827543  0.24727025  0.71191150     0.09900
C1924       C  0.98340636  0.24023215  0.69265552    -0.17400
C1925       C  0.96458215  0.22110410  0.69450121    -0.27800
C1926       C  0.95882379  0.21049700  0.71649229     0.18200
C1927       C  0.01204824  0.23716965  0.75287444     0.12200
C1928       C  0.01918969  0.26695738  0.70916962    -0.12200
H1929       H  0.98758384  0.24849742  0.67582674     0.12500
C1930       C  0.93735671  0.19146530  0.71989203    -0.23000
H1931       H  0.97012981  0.20868407  0.75233323     0.08100
C1932       C  0.00538263  0.24834318  0.77435238     0.04500
C1933       C  0.02130048  0.24431694  0.79364419    -0.20200
C1934       C  0.04345934  0.22921730  0.79174787    -0.12500
C1935       C  0.05132312  0.22029530  0.76970133     0.13200
C1936       C  0.03527977  0.22397067  0.75063564    -0.23000
C1937       C  0.98114420  0.26372637  0.77702105    -0.06000
H1938       H  0.01540960  0.25127947  0.81055251     0.14700
C1939       C  0.07632885  0.20653924  0.76579416    -0.16200
H1940       H  0.04045751  0.21556884  0.73406460     0.09000
H1941       H  0.93448350  0.18672685  0.73849426     0.06900
H1942       H  0.94164642  0.17328332  0.71070837     0.08100
H1943       H  0.91919963  0.19970678  0.71325892     0.07100
H1944       H  0.03814441  0.25823911  0.71285296     0.02000
H1945       H  0.01581582  0.28306489  0.72139893     0.02500
H1946       H  0.01976383  0.27485118  0.69129423     0.06000
H1947       H  0.97911849  0.27153995  0.79485268     0.05000
H1948       H  0.96417572  0.25153019  0.77340958    -0.00800
H1949       H  0.98142311  0.28006930  0.76469258     0.00700
H1950       H  0.07264200  0.18619005  0.76118922     0.04300
H1951       H  0.08885315  0.20743976  0.78119599     0.06300
H1952       H  0.08699427  0.21585739  0.75139875     0.07100
C1953       C  0.84137606  0.13791493  0.71388916    -0.22500
C1954       C  0.84154199  0.15622105  0.73170773     0.09500
C1955       C  0.85229265  0.18066790  0.72773629     0.09900
C1956       C  0.86379345  0.18576569  0.70625939    -0.17400
C1957       C  0.86487920  0.16690066  0.68896649    -0.27800
C1958       C  0.85291729  0.14293205  0.69248289     0.18200
C1959       C  0.83386498  0.14767547  0.75507643     0.12200
C1960       C  0.85215637  0.20108515  0.74623649    -0.12200
H1961       H  0.87301100  0.20411414  0.70329261     0.12500
C1962       C  0.85328843  0.12170371  0.67468987    -0.23000
H1963       H  0.83343275  0.11902791  0.71715978     0.08100
C1964       C  0.80837689  0.14052270  0.76026073     0.04500
C1965       C  0.80322113  0.12766130  0.78111376    -0.20200
C1966       C  0.82301340  0.12224138  0.79672564    -0.12500
C1967       C  0.84820736  0.13064667  0.79214334     0.13200
C1968       C  0.85338017  0.14317906  0.77124788    -0.23000
C1969       C  0.78678408  0.14633907  0.74377625    -0.06000
H1970       H  0.78388921  0.12137023  0.78504619     0.14700
C1971       C  0.86982969  0.12534274  0.80879572    -0.16200
H1972       H  0.87295562  0.14840091  0.76698436     0.09000
H1973       H  0.83330384  0.11604670  0.67046327     0.06900
H1974       H  0.86350788  0.10480567  0.68185463     0.08100
H1975       H  0.86286935  0.12721594  0.65829524     0.07100
H1976       H  0.86339393  0.19470805  0.76148741     0.02000
H1977       H  0.83212051  0.20504353  0.75168379     0.02500
H1978       H  0.86073507  0.21928920  0.73990093     0.06000
H1979       H  0.76797898  0.14013687  0.75089526     0.05000
H1980       H  0.78979378  0.13623439  0.72706553    -0.00800
H1981       H  0.78593342  0.16732068  0.74058412     0.00700
H1982       H  0.87217375  0.10433594  0.81101448     0.04300
H1983       H  0.86557640  0.13425059  0.82586290     0.06300
H1984       H  0.88833509  0.13325865  0.80246927     0.07100
C1985       C  0.30855151  0.14541598  0.65024923    -0.22500
C1986       C  0.32525691  0.14532852  0.63119618     0.09500
C1987       C  0.32219644  0.12656331  0.61375639     0.09900
C1988       C  0.30121158  0.10957524  0.61485719    -0.17400
C1989       C  0.28304620  0.11129413  0.63283471    -0.27800
C1990       C  0.28742674  0.12872146  0.65127865     0.18200
C1991       C  0.34295559  0.16749444  0.62833272     0.12200
C1992       C  0.34052347  0.12517457  0.59360510    -0.12200
H1993       H  0.29808181  0.09605427  0.60085653     0.12500
C1994       C  0.26982737  0.12997577  0.67203245    -0.23000
H1995       H  0.31121114  0.15967552  0.66372034     0.08100
C1996       C  0.33428132  0.19013953  0.61754624     0.04500
C1997       C  0.35012569  0.21185674  0.61723375    -0.20200
C1998       C  0.37452503  0.21179077  0.62759539    -0.12500
C1999       C  0.38347565  0.18886328  0.63806372     0.13200
C2000       C  0.36757261  0.16694169  0.63813462    -0.23000
C2001       C  0.30798203  0.19156664  0.60676705    -0.06000
H2002       H  0.34323026  0.22923045  0.60903430     0.14700
C2003       C  0.40883350  0.18700459  0.65043599    -0.16200
H2004       H  0.37405084  0.14958467  0.64662486     0.09000
H2005       H  0.25062210  0.13706147  0.66688891     0.06900
H2006       H  0.27727962  0.14322625  0.68552700     0.08100
H2007       H  0.26798909  0.11063368  0.67991157     0.07100
H2008       H  0.36024309  0.12169959  0.60011219     0.02000
H2009       H  0.34022671  0.14347534  0.58379818     0.02500
H2010       H  0.33544393  0.10941057  0.58148361     0.06000
H2011       H  0.30421470  0.21069423  0.59903762     0.05000
H2012       H  0.29309172  0.18792946  0.62014515    -0.00800
H2013       H  0.30622166  0.17699007  0.59282341     0.00700
H2014       H  0.40556042  0.18065677  0.66857476     0.04300
H2015       H  0.41935053  0.20537955  0.65131268     0.06300
H2016       H  0.42115406  0.17268299  0.64154423     0.07100
C2017       C  0.36518119  0.17415070  0.34911757    -0.22500
C2018       C  0.33889969  0.17717321  0.35367009     0.09500
C2019       C  0.32940617  0.20164017  0.35956674     0.09900
C2020       C  0.34618079  0.22262244  0.36025478    -0.17400
C2021       C  0.37257395  0.21993440  0.35574857    -0.27800
C2022       C  0.38222928  0.19520455  0.35024543     0.18200
C2023       C  0.32123633  0.15475004  0.35289092     0.12200
C2024       C  0.30152190  0.20556816  0.36560192    -0.12200
H2025       H  0.33858497  0.24127662  0.36488612     0.12500
C2026       C  0.41023017  0.19087981  0.34515784    -0.23000
H2027       H  0.37235824  0.15523843  0.34478078     0.08100
C2028       C  0.30533908  0.15023632  0.33351990     0.04500
C2029       C  0.28479718  0.13288853  0.33546159    -0.20200
C2030       C  0.27990003  0.11973462  0.35626191    -0.12500
C2031       C  0.29679083  0.12316064  0.37525638     0.13200
C2032       C  0.31736781  0.14048146  0.37320502    -0.23000
C2033       C  0.30964169  0.16429619  0.31103425    -0.06000
H2034       H  0.27196598  0.13017981  0.32090045     0.14700
C2035       C  0.29279799  0.11050219  0.39849828    -0.16200
H2036       H  0.32948172  0.14413088  0.38809821     0.09000
H2037       H  0.41644297  0.20344485  0.33065893     0.06900
H2038       H  0.41411682  0.17069004  0.34010730     0.08100
H2039       H  0.42183128  0.19511664  0.36081736     0.07100
H2040       H  0.29633815  0.19348515  0.38074586     0.02000
H2041       H  0.28922539  0.20022016  0.35068213     0.02500
H2042       H  0.29734482  0.22584692  0.37012331     0.06000
H2043       H  0.29553449  0.15848868  0.29760480     0.05000
H2044       H  0.32916878  0.16000674  0.30439505    -0.00800
H2045       H  0.30781941  0.18528334  0.31374410     0.00700
H2046       H  0.30968039  0.09839842  0.40264498     0.04300
H2047       H  0.27549297  0.09828484  0.39935122     0.06300
H2048       H  0.29077853  0.12546186  0.41209210     0.07100
C2049       C  0.43448939  0.26178466  0.46965177    -0.22500
C2050       C  0.41481552  0.27438036  0.48157575     0.09500
C2051       C  0.39552769  0.28730255  0.46919355     0.09900
C2052       C  0.39634523  0.28737377  0.44494045    -0.17400
C2053       C  0.41615810  0.27498652  0.43269154    -0.27800
C2054       C  0.43552944  0.26190203  0.44532942     0.18200
C2055       C  0.41492744  0.27413931  0.50713704     0.12200
C2056       C  0.37419754  0.30117517  0.48161162    -0.12200
H2057       H  0.38156262  0.29759370  0.43553802     0.12500
C2058       C  0.45715145  0.24769228  0.43361044    -0.23000
H2059       H  0.44916041  0.25191645  0.47950676     0.08100
C2060       C  0.40230055  0.25470853  0.51973942     0.04500
C2061       C  0.40205469  0.25590409  0.54401912    -0.20200
C2062       C  0.41449639  0.27587255  0.55577848    -0.12500
C2063       C  0.42723232  0.29530435  0.54313637     0.13200
C2064       C  0.42734647  0.29411382  0.51887374    -0.23000
C2065       C  0.38918457  0.23278348  0.50753836    -0.06000
H2066       H  0.39232792  0.24112025  0.55389366     0.14700
C2067       C  0.44009393  0.31794013  0.55456568    -0.16200
H2068       H  0.43684772  0.30905890  0.50901055     0.09000
H2069       H  0.46949242  0.23754368  0.44631858     0.06900
H2070       H  0.46959158  0.26135490  0.42404088     0.08100
H2071       H  0.44926958  0.23311229  0.42151429     0.07100
H2072       H  0.38234788  0.31642100  0.49285130     0.02000
H2073       H  0.36320149  0.28748231  0.49249657     0.02500
H2074       H  0.36066057  0.31031369  0.46927931     0.06000
H2075       H  0.38026612  0.21922531  0.52001926     0.05000
H2076       H  0.40338161  0.22202004  0.49697764    -0.00800
H2077       H  0.37389760  0.24023004  0.49599982     0.00700
H2078       H  0.46075716  0.31813502  0.54993306     0.04300
H2079       H  0.43848145  0.31779394  0.57372872     0.06300
H2080       H  0.43116322  0.33595786  0.54826983     0.07100
C2081       C  0.20021721  0.65717070  0.61787757    -0.22500
C2082       C  0.18006064  0.64947212  0.63221105     0.09500
C2083       C  0.18156782  0.62552514  0.64356788     0.09900
C2084       C  0.20395532  0.61041412  0.64117645    -0.17400
C2085       C  0.22488999  0.61870672  0.62760107    -0.27800
C2086       C  0.22246709  0.64236802  0.61530071     0.18200
C2087       C  0.15819841  0.66769471  0.63492483     0.12200
C2088       C  0.15955685  0.61594761  0.65806336    -0.12200
H2089       H  0.20531320  0.59237768  0.65040316     0.12500
C2090       C  0.24299841  0.65271970  0.59930156    -0.23000
H2091       H  0.19868272  0.67541411  0.60895720     0.08100
C2092       C  0.15857278  0.68696692  0.65211776     0.04500
C2093       C  0.14105185  0.70742529  0.65088761    -0.20200
C2094       C  0.12351470  0.70981354  0.63245377    -0.12500
C2095       C  0.12277247  0.68997558  0.61545321     0.13200
C2096       C  0.13984383  0.66910395  0.61723380    -0.23000
C2097       C  0.17839410  0.68673527  0.67110932    -0.06000
H2098       H  0.14179089  0.72229330  0.66399671     0.14700
C2099       C  0.10597819  0.69051502  0.59417217    -0.16200
H2100       H  0.14004180  0.65463536  0.60371831     0.09000
H2101       H  0.26019080  0.65839070  0.60939823     0.06900
H2102       H  0.23654544  0.67011104  0.58986009     0.08100
H2103       H  0.24811943  0.63813787  0.58606860     0.07100
H2104       H  0.14211288  0.61434992  0.64714389     0.02000
H2105       H  0.15570243  0.62944220  0.67252172     0.02500
H2106       H  0.16365140  0.59678405  0.66558574     0.06000
H2107       H  0.17624056  0.70340613  0.68295794     0.05000
H2108       H  0.19791995  0.68750029  0.66344532    -0.00800
H2109       H  0.17648836  0.66900615  0.68157441     0.00700
H2110       H  0.11818649  0.68880502  0.57845276     0.04300
H2111       H  0.09460889  0.70815285  0.59207292     0.06300
H2112       H  0.09259710  0.67395625  0.59461857     0.07100
C2113       C  0.34635718  0.40033038  0.61553135    -0.22500
C2114       C  0.36375656  0.42068403  0.61330300     0.09500
C2115       C  0.39026433  0.41519688  0.61160829     0.09900
C2116       C  0.39874285  0.38967612  0.61364770    -0.17400
C2117       C  0.38135927  0.36940993  0.61681567    -0.27800
C2118       C  0.35470686  0.37479538  0.61717861     0.18200
C2119       C  0.35404155  0.44741259  0.61618216     0.12200
C2120       C  0.40961777  0.43622756  0.60767638    -0.12200
H2121       H  0.41912173  0.38554423  0.61328678     0.12500
C2122       C  0.33441482  0.35454571  0.62068828    -0.23000
H2123       H  0.32606037  0.40449976  0.61720734     0.08100
C2124       C  0.33751179  0.45932864  0.60008165     0.04500
C2125       C  0.32742246  0.48384446  0.60502303    -0.20200
C2126       C  0.33354840  0.49696299  0.62566797    -0.12500
C2127       C  0.35086435  0.48498660  0.64149086     0.13200
C2128       C  0.36038583  0.46041126  0.63658728    -0.23000
C2129       C  0.33075776  0.44633838  0.57757588    -0.06000
H2130       H  0.31455142  0.49271694  0.59267980     0.14700
C2131       C  0.35962359  0.49739918  0.66380991    -0.16200
H2132       H  0.37276820  0.45096334  0.64901785     0.09000
H2133       H  0.32128528  0.35442594  0.60554719     0.06900
H2134       H  0.32314702  0.35903296  0.63653119     0.08100
H2135       H  0.34216929  0.33500391  0.62274680     0.07100
H2136       H  0.40966062  0.44981580  0.62246824     0.02000
H2137       H  0.40480988  0.44675540  0.59153162     0.02500
H2138       H  0.42934599  0.42846518  0.60582541     0.06000
H2139       H  0.31839186  0.45865081  0.56656988     0.05000
H2140       H  0.32022973  0.42824269  0.58098558    -0.00800
H2141       H  0.34854900  0.44199017  0.56773577     0.00700
H2142       H  0.37302325  0.48497505  0.67367399     0.04300
H2143       H  0.34297484  0.50123618  0.67528822     0.06300
H2144       H  0.37000084  0.51550290  0.65994741     0.07100
C2145       C  0.20645238  0.66125042  0.35231642    -0.22500
C2146       C  0.18280859  0.64917449  0.35568386     0.09500
C2147       C  0.18195102  0.62233618  0.35864111     0.09900
C2148       C  0.20508843  0.60838180  0.35974800    -0.17400
C2149       C  0.22904313  0.62073469  0.35785370    -0.27800
C2150       C  0.22953275  0.64753314  0.35321880     0.18200
C2151       C  0.15984556  0.66587425  0.35781461     0.12200
C2152       C  0.15667852  0.60853722  0.36053801    -0.12200
H2153       H  0.20445000  0.58788480  0.36273124     0.12500
C2154       C  0.25410934  0.66207274  0.34884029    -0.23000
H2155       H  0.20683723  0.68183529  0.34963490     0.08100
C2156       C  0.15256794  0.67584103  0.37962717     0.04500
C2157       C  0.13495584  0.69613999  0.38070534    -0.20200
C2158       C  0.12471216  0.70704400  0.36051026    -0.12500
C2159       C  0.13103632  0.69628942  0.33867925     0.13200
C2160       C  0.14845650  0.67570184  0.33765264    -0.23000
C2161       C  0.16470166  0.66625781  0.40169358    -0.06000
H2162       H  0.13030695  0.70461964  0.39736993     0.14700
C2163       C  0.12141119  0.70715834  0.31608055    -0.16200
H2164       H  0.15443427  0.66834355  0.32090422     0.09000
H2165       H  0.26588204  0.66283673  0.36482564     0.06900
H2166       H  0.25041594  0.68222271  0.34358411     0.08100
H2167       H  0.26500690  0.65278269  0.33458615     0.07100
H2168       H  0.14530256  0.61187661  0.34456422     0.02000
H2169       H  0.14570133  0.61571619  0.37568787     0.02500
H2170       H  0.15934709  0.58753772  0.36262612     0.06000
H2171       H  0.15710251  0.67640600  0.41718539     0.05000
H2172       H  0.18575354  0.66935651  0.40106460    -0.00800
H2173       H  0.16077317  0.64550070  0.40388402     0.00700
H2174       H  0.13793848  0.71367174  0.30543964     0.04300
H2175       H  0.10834345  0.72369697  0.31831694     0.06300
H2176       H  0.11089595  0.69204275  0.30640871     0.07100
C2177       C  0.36763617  0.47179649  0.39390568    -0.22500
C2178       C  0.35447393  0.44929097  0.38789410     0.09500
C2179       C  0.32854417  0.45089101  0.38091696     0.09900
C2180       C  0.31689940  0.47507372  0.37872167    -0.17400
C2181       C  0.33077856  0.49764716  0.38281093    -0.27800
C2182       C  0.35617126  0.49598352  0.39129539     0.18200
C2183       C  0.36897695  0.42481680  0.38579607     0.12200
C2184       C  0.31370082  0.42721309  0.37426823    -0.12200
H2185       H  0.29753102  0.47643119  0.37200894     0.12500
C2186       C  0.37186203  0.51937295  0.39719001    -0.23000
H2187       H  0.38744879  0.47056057  0.39948639     0.08100
C2188       C  0.38547498  0.42055083  0.36678265     0.04500
C2189       C  0.39657784  0.39631749  0.36367571    -0.20200
C2190       C  0.39101383  0.37563330  0.37858593    -0.12500
C2191       C  0.37510846  0.38027334  0.39821415     0.13200
C2192       C  0.36457672  0.40490052  0.40163973    -0.23000
C2193       C  0.39040600  0.44121032  0.34901974    -0.06000
H2194       H  0.40881921  0.39332936  0.34872974     0.14700
C2195       C  0.36859427  0.35952701  0.41544245    -0.16200
H2196       H  0.35197481  0.40840931  0.41625830     0.09000
H2197       H  0.38904053  0.52014211  0.38583241     0.06900
H2198       H  0.37821519  0.51819585  0.41552461     0.08100
H2199       H  0.36099685  0.53750245  0.39519651     0.07100
H2200       H  0.31225734  0.41411859  0.38937104     0.02000
H2201       H  0.32355813  0.41718188  0.35979098     0.02500
H2202       H  0.29393444  0.43193199  0.36854988     0.06000
H2203       H  0.40298856  0.43435381  0.33475099     0.05000
H2204       H  0.39996678  0.45785926  0.35731846    -0.00800
H2205       H  0.37198129  0.44751218  0.34126169     0.00700
H2206       H  0.35706512  0.36704345  0.43015875     0.04300
H2207       H  0.38646024  0.35120132  0.42268260     0.06300
H2208       H  0.35705300  0.34431187  0.40694027     0.07100
C2209       C  0.29610048  0.61049992  0.47272926    -0.22500
C2210       C  0.29538804  0.58689669  0.48429133     0.09500
C2211       C  0.29385961  0.56397378  0.47141582     0.09900
C2212       C  0.29348995  0.56515201  0.44712300    -0.17400
C2213       C  0.29446657  0.58874318  0.43538612    -0.27800
C2214       C  0.29531513  0.61180941  0.44841920     0.18200
C2215       C  0.29569195  0.58661141  0.50995058     0.12200
C2216       C  0.29268044  0.53831262  0.48335588    -0.12200
H2217       H  0.29273516  0.54748696  0.43719209     0.12500
C2218       C  0.29422583  0.63810587  0.43759103    -0.23000
H2219       H  0.29680956  0.62806920  0.48279760     0.08100
C2220       C  0.31888328  0.58613755  0.52246599     0.04500
C2221       C  0.31815165  0.58555217  0.54679785    -0.20200
C2222       C  0.29472653  0.58543054  0.55884459    -0.12500
C2223       C  0.27144615  0.58671680  0.54618623     0.13200
C2224       C  0.27230486  0.58691406  0.52187949    -0.23000
C2225       C  0.34432979  0.58614175  0.51008984    -0.06000
H2226       H  0.33594607  0.58488197  0.55647460     0.14700
C2227       C  0.24539302  0.58908064  0.55742815    -0.16200
H2228       H  0.25457124  0.58770733  0.51211289     0.09000
H2229       H  0.31232211  0.64856517  0.44126324     0.06900
H2230       H  0.27798221  0.64900790  0.44522194     0.08100
H2231       H  0.29110805  0.63777293  0.41863527     0.07100
H2232       H  0.27539988  0.53739243  0.49459102     0.02000
H2233       H  0.31003552  0.53557039  0.49418774     0.02500
H2234       H  0.29166977  0.52226425  0.47071189     0.06000
H2235       H  0.36062664  0.58568235  0.52245623     0.05000
H2236       H  0.34612680  0.60373334  0.49937637    -0.00800
H2237       H  0.34576142  0.56904988  0.49867594     0.00700
H2238       H  0.23557260  0.60641400  0.55065548     0.04300
H2239       H  0.24604477  0.59116178  0.57648240     0.06300
H2240       H  0.23365449  0.57196496  0.55312619     0.07100
C2241       C  0.66773086  0.79236923  0.61542423    -0.22500
C2242       C  0.66022056  0.81129998  0.63126928     0.09500
C2243       C  0.63708732  0.80822301  0.64375292     0.09900
C2244       C  0.62289882  0.78532221  0.64127422    -0.17400
C2245       C  0.63144810  0.76562760  0.62652955    -0.27800
C2246       C  0.65362637  0.76964943  0.61281547     0.18200
C2247       C  0.67818039  0.83303181  0.63532557     0.12200
C2248       C  0.62752906  0.82903626  0.65964537    -0.12200
H2249       H  0.60562871  0.78242500  0.65142821     0.12500
C2250       C  0.66236166  0.75014148  0.59515129    -0.23000
H2251       H  0.68521959  0.79509395  0.60553409     0.08100
C2252       C  0.69759956  0.83122478  0.65223055     0.04500
C2253       C  0.71738144  0.84950021  0.65260536    -0.20200
C2254       C  0.71889365  0.86924831  0.63604754    -0.12500
C2255       C  0.69866912  0.87165152  0.61961206     0.13200
C2256       C  0.67849845  0.85363577  0.61974041    -0.23000
C2257       C  0.69830348  0.80914085  0.66908002    -0.06000
H2258       H  0.73251656  0.84754376  0.66523047     0.14700
C2259       C  0.69814488  0.89140317  0.60049348    -0.16200
H2260       H  0.66370974  0.85473715  0.60658872     0.09000
H2261       H  0.66837695  0.73219141  0.60387505     0.06900
H2262       H  0.67897272  0.75719808  0.58490258     0.08100
H2263       H  0.64649454  0.74592537  0.58289436     0.07100
H2264       H  0.62447764  0.84689982  0.64955456     0.02000
H2265       H  0.64174969  0.83283448  0.67350862     0.02500
H2266       H  0.60908016  0.82367593  0.66798659     0.15600
H2267       H  0.71500564  0.81043864  0.68095035     0.05000
H2268       H  0.69969718  0.79073942  0.65946039    -0.00800
H2269       H  0.68063119  0.80901868  0.67979839     0.00700
H2270       H  0.69713391  0.88152274  0.58345292     0.04300
H2271       H  0.71500630  0.90411173  0.59984528     0.06300
H2272       H  0.68083282  0.90359355  0.60251838     0.07100
C2273       C  0.43036365  0.59778444  0.61811793    -0.22500
C2274       C  0.43675711  0.62328524  0.62320986     0.09500
C2275       C  0.41742135  0.64061269  0.62997362     0.09900
C2276       C  0.39213138  0.63187309  0.63200281    -0.17400
C2277       C  0.38562577  0.60617697  0.62747829    -0.27800
C2278       C  0.40495383  0.58902175  0.61979737     0.18200
C2279       C  0.46395487  0.63131900  0.62243094     0.12200
C2280       C  0.42360230  0.66812893  0.63576291    -0.12200
H2281       H  0.37743867  0.64508594  0.63789000     0.12500
C2282       C  0.39962199  0.56176910  0.61244013    -0.23000
H2283       H  0.44533626  0.58465392  0.61267095     0.08100
C2284       C  0.48077264  0.62533665  0.64074684     0.04500
C2285       C  0.50584879  0.63489395  0.64024615    -0.20200
C2286       C  0.51435003  0.65080329  0.62215543    -0.12500
C2287       C  0.49768583  0.65629119  0.60348378     0.13200
C2288       C  0.47263506  0.64639292  0.60386298    -0.23000
C2289       C  0.47192583  0.60984909  0.66132040    -0.06000
H2290       H  0.51851971  0.63098760  0.65471360     0.14700
C2291       C  0.50569965  0.67208542  0.58283491    -0.16200
H2292       H  0.45962593  0.65080201  0.58977657     0.09000
H2293       H  0.40906461  0.54830944  0.62464390     0.06900
H2294       H  0.40754565  0.55856343  0.59478747     0.08100
H2295       H  0.37896335  0.55709654  0.61147426     0.07100
H2296       H  0.43176928  0.67786853  0.62032206     0.02000
H2297       H  0.43772168  0.66884475  0.65014183     0.02500
H2298       H  0.40627270  0.67893042  0.64125614     0.06000
H2299       H  0.48737876  0.60751560  0.67438446     0.05000
H2300       H  0.46586492  0.59045940  0.65557517    -0.00800
H2301       H  0.45551180  0.61961576  0.66985538     0.00700
H2302       H  0.50267036  0.66079981  0.56673152     0.04300
H2303       H  0.52618929  0.67764931  0.58325041     0.06300
H2304       H  0.49386523  0.68975030  0.58199862     0.07100
C2305       C  0.64181007  0.81852366  0.35969316    -0.22500
C2306       C  0.66854198  0.81609805  0.35861893     0.09500
C2307       C  0.67961452  0.79152094  0.35719634     0.09900
C2308       C  0.66376986  0.76985641  0.35727959    -0.17400
C2309       C  0.63686453  0.77184050  0.35892765    -0.27800
C2310       C  0.62574483  0.79672860  0.35981289     0.18200
C2311       C  0.68519616  0.83909217  0.36028045     0.12200
C2312       C  0.70831733  0.78812051  0.35588610    -0.12200
H2313       H  0.67272917  0.75113131  0.35648007     0.12500
C2314       C  0.59715541  0.80069500  0.36079409    -0.23000
H2315       H  0.63353916  0.83756033  0.36075024     0.08100
C2316       C  0.69448103  0.85173706  0.34031041     0.04500
C2317       C  0.71500613  0.86911984  0.34239523    -0.20200
C2318       C  0.72655211  0.87361358  0.36396902    -0.12500
C2319       C  0.71584946  0.86251046  0.38415315     0.13200
C2320       C  0.69514447  0.84550979  0.38206756    -0.23000
C2321       C  0.68356870  0.84585116  0.31675566    -0.06000
H2322       H  0.72323697  0.87772452  0.32698621     0.14700
C2323       C  0.72650105  0.86826917  0.40788591    -0.16200
H2324       H  0.68775905  0.83587191  0.39733714     0.09000
H2325       H  0.58796065  0.79148317  0.34555438     0.06900
H2326       H  0.59203615  0.82136745  0.36054080     0.08100
H2327       H  0.58930527  0.79242881  0.37705071     0.07100
H2328       H  0.71745390  0.79627081  0.37162809     0.02000
H2329       H  0.71594746  0.79807042  0.34032561     0.02500
H2330       H  0.71382319  0.76758910  0.35469533     0.06000
H2331       H  0.69302636  0.85731698  0.30295198     0.05000
H2332       H  0.66276560  0.85035303  0.31661424    -0.00800
H2333       H  0.68627884  0.82522984  0.31263827     0.00700
H2334       H  0.71526251  0.85869394  0.42178029     0.04300
H2335       H  0.72577124  0.88924947  0.41098972     0.06300
H2336       H  0.74660762  0.86153521  0.40928135     0.07100
C2337       C  0.46562805  0.66239898  0.35771484    -0.22500
C2338       C  0.46363238  0.64150202  0.37286302     0.09500
C2339       C  0.48561015  0.63290957  0.38479038     0.09900
C2340       C  0.50920452  0.64533492  0.38105230    -0.17400
C2341       C  0.51126757  0.66612495  0.36566522    -0.27800
C2342       C  0.48912281  0.67470277  0.35375172     0.18200
C2343       C  0.43855903  0.62811572  0.37448051     0.12200
C2344       C  0.48413627  0.61071621  0.40142497    -0.12200
H2345       H  0.52620911  0.63861593  0.38996156     0.12500
C2346       C  0.48951343  0.69563574  0.33570266    -0.23000
H2347       H  0.44879263  0.66860754  0.34824461     0.08100
C2348       C  0.41721206  0.63961257  0.38530715     0.04500
C2349       C  0.39297849  0.62812413  0.38319962    -0.20200
C2350       C  0.38942856  0.60541911  0.37036815    -0.12500
C2351       C  0.41123361  0.59321388  0.36052130     0.13200
C2352       C  0.43546097  0.60478809  0.36273945    -0.23000
C2353       C  0.41995854  0.66417988  0.39885224    -0.06000
H2354       H  0.37654229  0.63742003  0.39106836     0.14700
C2355       C  0.40920944  0.56882466  0.34657758    -0.16200
H2356       H  0.45197838  0.59619262  0.35436481     0.09000
H2357       H  0.47696924  0.71164820  0.34138950     0.06900
H2358       H  0.48214298  0.68797023  0.31901785     0.08100
H2359       H  0.50879764  0.70344085  0.33221025     0.07100
H2360       H  0.47811128  0.59309090  0.39211070     0.02000
H2361       H  0.47001375  0.61505285  0.41530865     0.02500
H2362       H  0.50295757  0.60686395  0.40970577     0.06000
H2363       H  0.40147475  0.67024205  0.40671434     0.05000
H2364       H  0.42663698  0.67984235  0.38731600    -0.00800
H2365       H  0.43406369  0.66143938  0.41303566     0.00700
H2366       H  0.42815891  0.56246929  0.33990365     0.04300
H2367       H  0.39647635  0.57185964  0.33141664     0.06300
H2368       H  0.40152621  0.55317736  0.35759623     0.07100
C2369       C  0.57243489  0.69284747  0.46758958    -0.22500
C2370       C  0.59203658  0.70466764  0.48029370     0.09500
C2371       C  0.61220715  0.71719203  0.46854492     0.09900
C2372       C  0.61228024  0.71764509  0.44425304    -0.17400
C2373       C  0.59268204  0.70586013  0.43143303    -0.27800
C2374       C  0.57262840  0.69291839  0.44326257     0.18200
C2375       C  0.59170778  0.70283503  0.50589290     0.12200
C2376       C  0.63346270  0.73036731  0.48163853    -0.12200
H2377       H  0.62766514  0.72742731  0.43518020     0.12500
C2378       C  0.55190541  0.67783596  0.43108644    -0.23000
H2379       H  0.55725864  0.68284076  0.47675232     0.08100
C2380       C  0.57502148  0.71786217  0.51951927     0.04500
C2381       C  0.57623264  0.71604474  0.54376806    -0.20200
C2382       C  0.59402531  0.69982786  0.55469677    -0.12500
C2383       C  0.61050128  0.68446299  0.54087393     0.13200
C2384       C  0.60891845  0.68606563  0.51665044    -0.23000
C2385       C  0.55638880  0.73620766  0.50848018    -0.06000
H2386       H  0.56358236  0.72779498  0.55425757     0.14700
C2387       C  0.62938591  0.66587774  0.55131480    -0.16200
H2388       H  0.62142576  0.67439973  0.50594090     0.09000
H2389       H  0.53298803  0.68688511  0.43440519     0.06900
H2390       H  0.55152875  0.65794654  0.43795430     0.08100
H2391       H  0.55477458  0.67619489  0.41214689     0.07100
H2392       H  0.64421347  0.71618972  0.49215335     0.02000
H2393       H  0.62525518  0.74523697  0.49326638     0.02500
H2394       H  0.64729830  0.73984803  0.46974973     0.06000
H2395       H  0.54516231  0.74694644  0.52167387     0.05000
H2396       H  0.54269143  0.72549533  0.49739206    -0.00800
H2397       H  0.56698673  0.75030885  0.49768217     0.00700
H2398       H  0.63938805  0.65442364  0.53781071     0.04300
H2399       H  0.61919862  0.65229999  0.56294092     0.06300
H2400       H  0.64431702  0.67641838  0.56115935     0.07100
C2401       C  0.87227409  0.31201979  0.62540330    -0.22500
C2402       C  0.84629726  0.31007707  0.63122340     0.09500
C2403       C  0.83607347  0.28624745  0.63805196     0.09900
C2404       C  0.85192846  0.26463423  0.63834032    -0.17400
C2405       C  0.87784718  0.26595080  0.63153289    -0.27800
C2406       C  0.88829866  0.29029076  0.62547207     0.18200
C2407       C  0.82917894  0.33241371  0.62827575     0.12200
C2408       C  0.80813211  0.28347725  0.64441510    -0.12200
H2409       H  0.84362437  0.24638649  0.64329432     0.12500
C2410       C  0.91599560  0.29375382  0.61863448    -0.23000
H2411       H  0.87982981  0.33051771  0.62018891     0.08100
C2412       C  0.82276773  0.34860090  0.64700896     0.04500
C2413       C  0.80166552  0.36518858  0.64494186    -0.20200
C2414       C  0.78693977  0.36559652  0.62459195    -0.12500
C2415       C  0.79523835  0.35141957  0.60500768     0.13200
C2416       C  0.81614183  0.33480474  0.60720215    -0.23000
C2417       C  0.83742747  0.34738898  0.66944049    -0.06000
H2418       H  0.79553729  0.37637983  0.65979344     0.14700
C2419       C  0.78228004  0.35300943  0.58167439    -0.16200
H2420       H  0.82150466  0.32265772  0.59271193     0.09000
H2421       H  0.92064800  0.31415019  0.61499148     0.06900
H2422       H  0.92018171  0.28266209  0.60263464     0.08100
H2423       H  0.92865020  0.28731667  0.63295838     0.07100
H2424       H  0.79594074  0.28888677  0.62943387     0.02000
H2425       H  0.80352112  0.29612033  0.65933698     0.02500
H2426       H  0.80324467  0.26347952  0.64935548     0.06000
H2427       H  0.82992351  0.36131192  0.68235576     0.05000
H2428       H  0.85791277  0.35194369  0.66615177    -0.00800
H2429       H  0.83598496  0.32787095  0.67699516     0.00700
H2430       H  0.79674901  0.35773546  0.56818978     0.04300
H2431       H  0.76738586  0.36811843  0.58087841     0.06300
H2432       H  0.77339679  0.33423865  0.57739052     0.07100
C2433       C  0.65735633  0.51962576  0.64103672    -0.22500
C2434       C  0.65605164  0.52913108  0.61836817     0.09500
C2435       C  0.66464556  0.51374477  0.59979548     0.09900
C2436       C  0.67422414  0.48900932  0.60436880    -0.17400
C2437       C  0.67526290  0.47926097  0.62711555    -0.27800
C2438       C  0.66682233  0.49498969  0.64572859     0.18200
C2439       C  0.64596895  0.55554059  0.61507562     0.12200
C2440       C  0.66353344  0.52337606  0.57522612    -0.12200
H2441       H  0.68081912  0.47718833  0.59010368     0.12500
C2442       C  0.66858181  0.48655460  0.67071224    -0.23000
H2443       H  0.65100578  0.53174194  0.65520363     0.08100
C2444       C  0.61952254  0.56080151  0.61699398     0.04500
C2445       C  0.61118401  0.58636848  0.61849854    -0.20200
C2446       C  0.62864624  0.60689440  0.61805276    -0.12500
C2447       C  0.65515100  0.60159116  0.61510536     0.13200
C2448       C  0.66336023  0.57596319  0.61342539    -0.23000
C2449       C  0.60017290  0.53936407  0.61790379    -0.06000
H2450       H  0.59093059  0.59036474  0.62075646     0.14700
C2451       C  0.67564024  0.62201372  0.61536846    -0.16200
H2452       H  0.68370607  0.57182763  0.61220555     0.09000
H2453       H  0.66268285  0.50200708  0.68286631     0.06900
H2454       H  0.68865747  0.48125206  0.67494129     0.08100
H2455       H  0.65569920  0.46996339  0.67381465     0.07100
H2456       H  0.67544897  0.54091868  0.57347966     0.02000
H2457       H  0.64339861  0.52798056  0.57060192     0.02500
H2458       H  0.67078586  0.50886850  0.56272225     0.06000
H2459       H  0.58025198  0.54677286  0.61907655     0.05000
H2460       H  0.60371142  0.52709678  0.63328251    -0.00800
H2461       H  0.60174953  0.52751093  0.60195972     0.00700
H2462       H  0.68944060  0.61795218  0.62954637     0.04300
H2463       H  0.66821496  0.64157344  0.61826022     0.06300
H2464       H  0.68610395  0.62181733  0.59858817     0.07100
C2465       C  0.53764795  0.32375933  0.60092328    -0.22500
C2466       C  0.54690031  0.34096358  0.61767571     0.09500
C2467       C  0.53038359  0.34937914  0.63552926     0.09900
C2468       C  0.50507890  0.34033395  0.63626484    -0.17400
C2469       C  0.49600439  0.32234192  0.62009383    -0.27800
C2470       C  0.51243550  0.31422535  0.60192349     0.18200
C2471       C  0.57422423  0.34905737  0.61704908     0.12200
C2472       C  0.53976930  0.36690746  0.65451690    -0.12200
H2473       H  0.49266461  0.34636905  0.65033607     0.12500
C2474       C  0.50406283  0.29602697  0.58308290    -0.23000
H2475       H  0.55029265  0.31751954  0.58709414     0.08100
C2476       C  0.59406992  0.33195043  0.62306947     0.04500
C2477       C  0.61930359  0.34106965  0.62452369    -0.20200
C2478       C  0.62524418  0.36702036  0.62073372    -0.12500
C2479       C  0.60552497  0.38388389  0.61346556     0.13200
C2480       C  0.58026044  0.37465160  0.61184096    -0.23000
C2481       C  0.58855321  0.30435852  0.62908241    -0.06000
H2482       H  0.63433410  0.32800436  0.62969967     0.14700
C2483       C  0.61028995  0.41143148  0.60675949    -0.16200
H2484       H  0.56503681  0.38762406  0.60674636     0.09000
H2485       H  0.51545276  0.27808599  0.58414848     0.06900
H2486       H  0.50741530  0.30502107  0.56589658     0.08100
H2487       H  0.48345747  0.29109419  0.58398319     0.07100
H2488       H  0.54568794  0.38562783  0.64712010     0.02000
H2489       H  0.55635417  0.35798378  0.66346962     0.02500
H2490       H  0.52465158  0.37064866  0.66767326     0.06000
H2491       H  0.60619448  0.29395760  0.63433590     0.05000
H2492       H  0.58036406  0.29429173  0.61384463    -0.00800
H2493       H  0.57472446  0.30346135  0.64372090     0.00700
H2494       H  0.60228619  0.41497414  0.58922016     0.04300
H2495       H  0.63087388  0.41649759  0.60584697     0.06300
H2496       H  0.60060004  0.42434733  0.61933004     0.07100
C2497       C  0.80671587  0.32769362  0.34449315    -0.22500
C2498       C  0.82837057  0.33643770  0.35642335     0.09500
C2499       C  0.82785144  0.36088436  0.36690543     0.09900
C2500       C  0.80495958  0.37524428  0.36662363    -0.17400
C2501       C  0.78255799  0.36582168  0.35590532    -0.27800
C2502       C  0.78389406  0.34196399  0.34394446     0.18200
C2503       C  0.85013888  0.31827639  0.35929154     0.12200
C2504       C  0.85145736  0.37184851  0.37821442    -0.12200
H2505       H  0.80442169  0.39360309  0.37540189     0.12500
C2506       C  0.76156846  0.33111474  0.33047856    -0.23000
H2507       H  0.80744196  0.30903206  0.33620971     0.08100
C2508       C  0.85145523  0.30225086  0.37895654     0.04500
C2509       C  0.86902386  0.28192721  0.37925876    -0.20200
C2510       C  0.88484192  0.27645388  0.36011715    -0.12500
C2511       C  0.88426757  0.29312083  0.34070087     0.13200
C2512       C  0.86701066  0.31395230  0.34067551    -0.23000
C2513       C  0.83309875  0.30538272  0.39900983    -0.06000
H2514       H  0.86941584  0.26923887  0.39415083     0.14700
C2515       C  0.90000675  0.28874913  0.31911613    -0.16200
H2516       H  0.86565924  0.32604246  0.32543188     0.09000
H2517       H  0.74580399  0.32566263  0.34243927     0.06900
H2518       H  0.76699689  0.31355300  0.32072819     0.08100
H2519       H  0.75465904  0.34544374  0.31769525     0.07100
H2520       H  0.86706196  0.37337715  0.36517308     0.02000
H2521       H  0.85798153  0.35933822  0.39256143     0.02500
H2522       H  0.84784694  0.39126839  0.38543444     0.06000
H2523       H  0.83639569  0.29077801  0.41269460     0.05000
H2524       H  0.81306345  0.30326571  0.39282004    -0.00800
H2525       H  0.83542365  0.32454695  0.40704617     0.00700
H2526       H  0.88703299  0.28649918  0.30399865     0.04300
H2527       H  0.91222055  0.27146857  0.31990620     0.06300
H2528       H  0.91262504  0.30558428  0.31610137     0.07100
C2529       C  0.68066240  0.53568437  0.38447761    -0.22500
C2530       C  0.65403172  0.53845309  0.38296056     0.09500
C2531       C  0.63847798  0.51647680  0.38105966     0.09900
C2532       C  0.65002683  0.49236293  0.37844395    -0.17400
C2533       C  0.67689422  0.48962571  0.37749471    -0.27800
C2534       C  0.69239461  0.51155095  0.38202088     0.18200
C2535       C  0.64329763  0.56438950  0.37901950     0.12200
C2536       C  0.60966940  0.51864365  0.38102452    -0.12200
H2537       H  0.63785217  0.47573829  0.37597036     0.12500
C2538       C  0.72122916  0.51022588  0.38358890    -0.23000
H2539       H  0.69240099  0.55274029  0.38624222     0.08100
C2540       C  0.63869605  0.58204389  0.39706888     0.04500
C2541       C  0.62900866  0.60653806  0.39166512    -0.20200
C2542       C  0.62367243  0.61358788  0.36860051    -0.12500
C2543       C  0.62853770  0.59565605  0.35055550     0.13200
C2544       C  0.63826936  0.57141803  0.35608821    -0.23000
C2545       C  0.64389446  0.57492545  0.42189732    -0.06000
H2546       H  0.62551382  0.62018942  0.40549665     0.14700
C2547       C  0.62451438  0.60197137  0.32526898    -0.16200
H2548       H  0.64218398  0.55773379  0.34235552     0.09000
H2549       H  0.72686619  0.49642060  0.39730257     0.06900
H2550       H  0.72956129  0.50434402  0.36670603     0.08100
H2551       H  0.72974777  0.52909781  0.38813637     0.07100
H2552       H  0.60325754  0.53030568  0.36603063     0.02000
H2553       H  0.60318570  0.52795752  0.39733110     0.02500
H2554       H  0.60030245  0.49955449  0.37980799     0.06000
H2555       H  0.63903538  0.59082895  0.43394801     0.05000
H2556       H  0.66451605  0.57027145  0.42408395    -0.00800
H2557       H  0.63220445  0.55793859  0.42672693     0.00700
H2558       H  0.63112405  0.58625244  0.31370972     0.04300
H2559       H  0.63547138  0.61948081  0.32059714     0.06300
H2560       H  0.60381651  0.60493331  0.32175800     0.07100
C2561       C  0.59456539  0.35053400  0.39314618    -0.22500
C2562       C  0.57527098  0.35610998  0.37709397     0.09500
C2563       C  0.57999103  0.37402289  0.35933693     0.09900
C2564       C  0.60442737  0.38497456  0.35725019    -0.17400
C2565       C  0.62455753  0.37834547  0.37239973    -0.27800
C2566       C  0.61917664  0.36141639  0.39113242     0.18200
C2567       C  0.55077557  0.34174589  0.37797025     0.12200
C2568       C  0.55937473  0.38102383  0.34217090    -0.12200
H2569       H  0.60795253  0.39814785  0.34308312     0.12500
C2570       C  0.63906614  0.35425026  0.40892373    -0.23000
H2571       H  0.59053365  0.33692717  0.40688347     0.08100
C2572       C  0.54771753  0.31862173  0.36554111     0.04500
C2573       C  0.52332362  0.30737409  0.36405279    -0.20200
C2574       C  0.50192073  0.31888359  0.37454390    -0.12500
C2575       C  0.50544912  0.34096830  0.38852255     0.13200
C2576       C  0.52983226  0.35229962  0.38982045    -0.23000
C2577       C  0.57001909  0.30645540  0.35305815    -0.06000
H2578       H  0.52067929  0.29041067  0.35341054     0.14700
C2579       C  0.48403432  0.35294379  0.40238230    -0.16200
H2580       H  0.53241319  0.36981427  0.39972280     0.09000
H2581       H  0.65489777  0.34342066  0.40057479     0.06900
H2582       H  0.63095370  0.34182569  0.42274777     0.08100
H2583       H  0.64666834  0.37182439  0.41736887     0.07100
H2584       H  0.54269691  0.38937304  0.35147417     0.02000
H2585       H  0.55307548  0.36366592  0.33257848     0.02500
H2586       H  0.56623505  0.39532342  0.32931272     0.06000
H2587       H  0.56431296  0.28850621  0.34404729     0.05000
H2588       H  0.58533317  0.30170039  0.36569022    -0.00800
H2589       H  0.57780242  0.31991036  0.33989700     0.00700
H2590       H  0.48989472  0.35438169  0.42084497     0.04300
H2591       H  0.46609098  0.34155703  0.40196826     0.06300
H2592       H  0.48002264  0.37249605  0.39570832     0.07100
C2593       C  0.71289999  0.42417520  0.47123755    -0.22500
C2594       C  0.71936329  0.40133385  0.48249401     0.09500
C2595       C  0.72643388  0.37962444  0.46941173     0.09900
C2596       C  0.72690284  0.38125747  0.44514844    -0.17400
C2597       C  0.72059565  0.40417203  0.43368395    -0.27800
C2598       C  0.71341488  0.42596469  0.44697114     0.18200
C2599       C  0.71834351  0.40055080  0.50807846     0.12200
C2600       C  0.73352190  0.35480279  0.48109909    -0.12200
H2601       H  0.73234239  0.36455783  0.43507947     0.12500
C2602       C  0.70542798  0.45090778  0.43587592    -0.23000
H2603       H  0.70733979  0.44064588  0.48156171     0.08100
C2604       C  0.73914362  0.40893435  0.52165471     0.04500
C2605       C  0.73736484  0.40764891  0.54587771    -0.20200
C2606       C  0.71525766  0.39806936  0.55686927    -0.12500
C2607       C  0.69418608  0.38998218  0.54306067     0.13200
C2608       C  0.69608218  0.39140521  0.51881874    -0.23000
C2609       C  0.76327548  0.41900341  0.51052322    -0.06000
H2610       H  0.75356653  0.41376149  0.55625918     0.14700
C2611       C  0.66942974  0.38032845  0.55349136    -0.16200
H2612       H  0.68017433  0.38523919  0.50810266     0.09000
H2613       H  0.69893509  0.46515342  0.44895239     0.06900
H2614       H  0.68930449  0.44751497  0.42369028     0.08100
H2615       H  0.72187662  0.45950701  0.42645845     0.07100
H2616       H  0.71704210  0.34767031  0.49145866     0.02000
H2617       H  0.75016587  0.35792767  0.49274642     0.02500
H2618       H  0.73878820  0.33974972  0.46831574     0.06000
H2619       H  0.77781778  0.42456832  0.52365045     0.05000
H2620       H  0.75876078  0.43617351  0.49992338    -0.00800
H2621       H  0.77177402  0.40401783  0.49919596     0.00700
H2622       H  0.65464572  0.37671307  0.54003414     0.04300
H2623       H  0.66159094  0.39477832  0.56575659     0.06300
H2624       H  0.67271661  0.36191245  0.56264271     0.07100
C2625       C  0.20985757  0.32154260  0.86159444    -0.22500
C2626       C  0.18656307  0.33225978  0.85468202     0.09500
C2627       C  0.18540338  0.35864069  0.84932638     0.09900
C2628       C  0.20778697  0.37379571  0.85112259    -0.17400
C2629       C  0.23140572  0.36291026  0.85760396    -0.27800
C2630       C  0.23228338  0.33624414  0.86290969     0.18200
C2631       C  0.16410482  0.31475152  0.85312877     0.12200
C2632       C  0.16069348  0.37054702  0.84134896    -0.12200
H2633       H  0.20695845  0.39404294  0.84697844     0.12500
C2634       C  0.25654272  0.32287181  0.87051248    -0.23000
H2635       H  0.21049020  0.30126422  0.86573304     0.08100
C2636       C  0.16198239  0.29697589  0.83477301     0.04500
C2637       C  0.14429152  0.27677524  0.83646684    -0.20200
C2638       C  0.12870339  0.27370278  0.85615594    -0.12500
C2639       C  0.12983585  0.29236480  0.87406077     0.13200
C2640       C  0.14744635  0.31275183  0.87217056    -0.23000
C2641       C  0.17902054  0.29884355  0.81371630    -0.06000
H2642       H  0.14337288  0.26259846  0.82272340     0.14700
C2643       C  0.11438267  0.29062782  0.89613985    -0.16200
H2644       H  0.14935049  0.32625417  0.88637290     0.09000
H2645       H  0.27065384  0.32250943  0.85609265     0.06900
H2646       H  0.25297624  0.30261146  0.87551546     0.08100
H2647       H  0.26479785  0.33279338  0.88582131     0.07100
H2648       H  0.14585002  0.36840476  0.85502657     0.02000
H2649       H  0.15403973  0.36084669  0.82529460     0.02500
H2650       H  0.16303902  0.39129620  0.83756132     0.06000
H2651       H  0.17456362  0.28367696  0.80079634     0.05000
H2652       H  0.19941569  0.29671425  0.81881578    -0.00800
H2653       H  0.17629999  0.31777554  0.80528167     0.00700
H2654       H  0.12756386  0.28995027  0.91123197     0.04300
H2655       H  0.10197536  0.27348518  0.89715073     0.06300
H2656       H  0.10201635  0.30786543  0.89775739     0.07100
C2657       C  0.26945710  0.49014663  0.71865850    -0.22500
C2658       C  0.26078270  0.50381963  0.73806196     0.09500
C2659       C  0.25469176  0.53010159  0.73572962     0.09900
C2660       C  0.25947558  0.54250705  0.71453290    -0.17400
C2661       C  0.26980345  0.52914126  0.69557977    -0.27800
C2662       C  0.27400653  0.50237064  0.69742250     0.18200
C2663       C  0.26357975  0.49151571  0.76112866     0.12200
C2664       C  0.24367464  0.54515169  0.75570295    -0.12200
H2665       H  0.25623312  0.56298185  0.71304091     0.12500
C2666       C  0.28504462  0.48624710  0.67811374    -0.23000
H2667       H  0.27453829  0.47008016  0.72053739     0.08100
C2668       C  0.24939081  0.46964868  0.76788242     0.04500
C2669       C  0.25643918  0.45628974  0.78812553    -0.20200
C2670       C  0.27755866  0.46417953  0.80145336    -0.12500
C2671       C  0.29065382  0.48707599  0.79536184     0.13200
C2672       C  0.28358647  0.50021548  0.77523971    -0.23000
C2673       C  0.22699625  0.46039129  0.75370772    -0.06000
H2674       H  0.24613974  0.43904576  0.79299375     0.14700
C2675       C  0.31201774  0.49808465  0.80997902    -0.16200
H2676       H  0.29452270  0.51690440  0.76989763     0.09000
H2677       H  0.27140831  0.47061269  0.67377275     0.06900
H2678       H  0.30336656  0.47751911  0.68388366     0.08100
H2679       H  0.28888467  0.49711029  0.66206989     0.07100
H2680       H  0.25744442  0.54588690  0.77031208     0.02000
H2681       H  0.22563346  0.53593983  0.76166013     0.02500
H2682       H  0.23922204  0.56520573  0.75063010     0.06000
H2683       H  0.21755355  0.44352366  0.76180897     0.05000
H2684       H  0.23345761  0.45468597  0.73611794    -0.00800
H2685       H  0.21258012  0.47595629  0.75219798     0.00700
H2686       H  0.32909927  0.48544854  0.80943270     0.04300
H2687       H  0.30534962  0.50042671  0.82814452     0.06300
H2688       H  0.31822836  0.51723294  0.80366622     0.07100
C2689       C  0.35018640  0.35256844  0.75988020    -0.22500
C2690       C  0.33271964  0.33309972  0.75452422     0.09500
C2691       C  0.31353678  0.32626934  0.77059490     0.09900
C2692       C  0.31195553  0.33969182  0.79171477    -0.17400
C2693       C  0.32931654  0.35951781  0.79691061    -0.27800
C2694       C  0.34911869  0.36553723  0.78101117     0.18200
C2695       C  0.33680308  0.31948166  0.73243801     0.12200
C2696       C  0.29475907  0.30515577  0.76530505    -0.12200
H2697       H  0.29682132  0.33513120  0.80394943     0.12500
C2698       C  0.37013248  0.38469374  0.78594931    -0.23000
H2699       H  0.36529147  0.35721732  0.74761570     0.08100
C2700       C  0.32905682  0.33052438  0.71125418     0.04500
C2701       C  0.34082542  0.32247041  0.69062761    -0.20200
C2702       C  0.36054344  0.30420414  0.69104676    -0.12500
C2703       C  0.36616877  0.29115504  0.71190916     0.13200
C2704       C  0.35419059  0.29903867  0.73242902    -0.23000
C2705       C  0.30971177  0.35195050  0.71066433    -0.06000
H2706       H  0.33633512  0.33216451  0.67451030     0.14700
C2707       C  0.38527020  0.26949258  0.71322437    -0.16200
H2708       H  0.35991785  0.29050400  0.74877177     0.09000
H2709       H  0.36849065  0.40113846  0.77382473     0.06900
H2710       H  0.38907580  0.37539861  0.78333764     0.08100
H2711       H  0.36998782  0.39197926  0.80396361     0.07100
H2712       H  0.30521950  0.28687195  0.76252748     0.02000
H2713       H  0.28382520  0.30995072  0.74938951     0.02500
H2714       H  0.28088270  0.30233487  0.77971353     0.06000
H2715       H  0.30589147  0.35846421  0.69266081     0.05000
H2716       H  0.31686744  0.36862737  0.72073474    -0.00800
H2717       H  0.29135206  0.34525671  0.71831687     0.00700
H2718       H  0.40177241  0.27529803  0.72419011     0.04300
H2719       H  0.39256354  0.26355642  0.69596740     0.06300
H2720       H  0.37594935  0.25244133  0.72111132     0.07100
C2721       C  0.16997634  0.29751507  0.11521914    -0.22500
C2722       C  0.16157190  0.31788922  0.12907610     0.09500
C2723       C  0.13731528  0.31650858  0.13989739     0.09900
C2724       C  0.12258188  0.29398165  0.13762642    -0.17400
C2725       C  0.13172914  0.27295678  0.12481752    -0.27800
C2726       C  0.15540985  0.27509849  0.11287682     0.18200
C2727       C  0.17947364  0.33968126  0.13247464     0.12200
C2728       C  0.12707965  0.33875008  0.15372749    -0.12200
H2729       H  0.10424444  0.29248046  0.14642756     0.12500
C2730       C  0.16528999  0.25404258  0.09726191    -0.23000
H2731       H  0.18843199  0.29898195  0.10659806     0.08100
C2732       C  0.19760787  0.33934724  0.15058675     0.04500
C2733       C  0.21787863  0.35704603  0.15036775    -0.20200
C2734       C  0.22096997  0.37469148  0.13214733    -0.12500
C2735       C  0.20213887  0.37560128  0.11436334     0.13200
C2736       C  0.18146424  0.35828157  0.11505160    -0.23000
C2737       C  0.19645258  0.31933879  0.16941955    -0.06000
H2738       H  0.23224103  0.35620871  0.16393409     0.14700
C2739       C  0.20387159  0.39277470  0.09335289    -0.16200
H2740       H  0.16771547  0.35809595  0.10094797     0.09000
H2741       H  0.17009885  0.23676894  0.10757203     0.06900
H2742       H  0.18297539  0.25993554  0.08791229     0.08100
H2743       H  0.15056086  0.24912291  0.08409474     0.07100
H2744       H  0.12560780  0.35589646  0.14241016     0.02000
H2745       H  0.14008604  0.34315220  0.16839256     0.02500
H2746       H  0.10775053  0.33458801  0.16091959     0.06000
H2747       H  0.21235552  0.32158698  0.18205104     0.05000
H2748       H  0.19788760  0.29988963  0.16168166    -0.00800
H2749       H  0.17811171  0.32092513  0.17905864     0.00700
H2750       H  0.20362798  0.38082504  0.07740243     0.04300
H2751       H  0.22138285  0.40458922  0.09248518     0.06300
H2752       H  0.18704934  0.40581120  0.09302900     0.07100
C2753       C  0.30065482  0.42532859  0.01991471    -0.22500
C2754       C  0.28520013  0.40731637  0.00852270     0.09500
C2755       C  0.26980657  0.39038994  0.02159087     0.09900
C2756       C  0.27015730  0.39193164  0.04587699    -0.17400
C2757       C  0.28554286  0.41001537  0.05732279    -0.27800
C2758       C  0.30129719  0.42674318  0.04419029     0.18200
C2759       C  0.28591231  0.40615133  0.98287397     0.12200
C2760       C  0.25286353  0.37091291  0.00987954    -0.12200
H2761       H  0.25821390  0.37909031  0.05601215     0.12500
C2762       C  0.31988304  0.44543859  0.05501876    -0.23000
H2763       H  0.31272624  0.43803242  0.00975615     0.08100
C2764       C  0.27238615  0.42391788  0.96918120     0.04500
C2765       C  0.27392309  0.42222424  0.94494191    -0.20200
C2766       C  0.28873396  0.40316798  0.93397048    -0.12500
C2767       C  0.30240140  0.38537707  0.94788868     0.13200
C2768       C  0.30072868  0.38713636  0.97216037    -0.23000
C2769       C  0.25623931  0.44457396  0.98017569    -0.06000
H2770       H  0.26344472  0.43592627  0.93450058     0.14700
C2771       C  0.31956266  0.36510446  0.93754897    -0.16200
H2772       H  0.31122562  0.37375670  0.98292420     0.09000
H2773       H  0.31436701  0.46532987  0.05033977     0.06900
H2774       H  0.33949498  0.44162828  0.04832926     0.08100
H2775       H  0.32089323  0.44403924  0.07412797     0.07100
H2776       H  0.26474019  0.35747863  0.99949540     0.02000
H2777       H  0.23909720  0.38081344  0.99827054     0.02500
H2778       H  0.24173388  0.35948271  0.02265527     0.06000
H2779       H  0.24660109  0.45666929  0.96696205     0.05000
H2780       H  0.26847168  0.45723362  0.99099617    -0.00800
H2781       H  0.24123227  0.43570095  0.99124887     0.00700
H2782       H  0.32958159  0.35383961  0.95112721     0.04300
H2783       H  0.33442887  0.37427067  0.92652948     0.06300
H2784       H  0.30806630  0.35142720  0.92709821     0.07100
C2785       C  0.24893744  0.52078205  0.26707739    -0.22500
C2786       C  0.26401367  0.50020937  0.25925872     0.09500
C2787       C  0.28450588  0.49134581  0.27308929     0.09900
C2788       C  0.28983996  0.50364916  0.29412050    -0.17400
C2789       C  0.27554349  0.52487589  0.30150398    -0.27800
C2790       C  0.25453194  0.53336433  0.28807719     0.18200
C2791       C  0.26143139  0.49107493  0.23503776     0.12200
C2792       C  0.30184510  0.46996464  0.26499113    -0.12200
H2793       H  0.30610042  0.49745463  0.30438501     0.12500
C2794       C  0.23869078  0.55641647  0.29464211    -0.23000
H2795       H  0.23357764  0.52787505  0.25618294     0.08100
C2796       C  0.24982533  0.46739379  0.22943794     0.04500
C2797       C  0.25387798  0.45671692  0.20729809    -0.20200
C2798       C  0.26935290  0.46928577  0.19092118    -0.12500
C2799       C  0.27888605  0.49407934  0.19590399     0.13200
C2800       C  0.27468219  0.50471829  0.21788888    -0.23000
C2801       C  0.23382304  0.45320184  0.24699260    -0.06000
H2802       H  0.24639179  0.43782344  0.20332376     0.14700
C2803       C  0.29380907  0.50924102  0.17817342    -0.16200
H2804       H  0.28320087  0.52307323  0.22224102     0.09000
H2805       H  0.21830377  0.55063617  0.29654478     0.06900
H2806       H  0.24017502  0.57113261  0.28079539     0.08100
H2807       H  0.24487990  0.56536460  0.31114060     0.07100
H2808       H  0.31111646  0.47534971  0.24834952     0.02000
H2809       H  0.29066281  0.45209467  0.26245875     0.02500
H2810       H  0.31723420  0.46585961  0.27774932     0.06000
H2811       H  0.22614757  0.43499043  0.23979081     0.05000
H2812       H  0.21737472  0.46536569  0.25232863    -0.00800
H2813       H  0.24540345  0.44852883  0.26253155     0.00700
H2814       H  0.29888311  0.52864581  0.18468159     0.04300
H2815       H  0.28198114  0.51161881  0.16235142     0.06300
H2816       H  0.31193778  0.49931136  0.17364866     0.07100
C2817       C  0.33742178  0.33245350  0.21786420    -0.22500
C2818       C  0.32735143  0.34295470  0.23830107     0.09500
C2819       C  0.30959480  0.36326295  0.23717708     0.09900
C2820       C  0.30347391  0.37372253  0.21555646    -0.17400
C2821       C  0.31515768  0.36464778  0.19519352    -0.27800
C2822       C  0.33173078  0.34321887  0.19621372     0.18200
C2823       C  0.33996297  0.33635687  0.26031144     0.12200
C2824       C  0.29812225  0.37466211  0.25885954    -0.12200
H2825       H  0.29064163  0.39005517  0.21465994     0.12500
C2826       C  0.34518304  0.33304993  0.17494338    -0.23000
H2827       H  0.35135144  0.31708348  0.21905316     0.08100
C2828       C  0.33450547  0.31367200  0.27263797     0.04500
C2829       C  0.34881096  0.30795210  0.29259434    -0.20200
C2830       C  0.36861494  0.32427580  0.29990613    -0.12500
C2831       C  0.37355656  0.34730094  0.28778083     0.13200
C2832       C  0.35912290  0.35301541  0.26811979    -0.23000
C2833       C  0.31382148  0.29562004  0.26461723    -0.06000
H2834       H  0.34509243  0.29039482  0.30208955     0.14700
C2835       C  0.39363330  0.36620158  0.29573127    -0.16200
H2836       H  0.36305491  0.37043607  0.25845954     0.09000
H2837       H  0.35830805  0.31696585  0.17919813     0.06900
H2838       H  0.35677657  0.34850178  0.16680092     0.08100
H2839       H  0.33085830  0.32581141  0.16231942     0.07100
H2840       H  0.31344845  0.38287336  0.26994800     0.02000
H2841       H  0.28779088  0.35953828  0.26868293     0.02500
H2842       H  0.28431972  0.39024404  0.25481198     0.06000
H2843       H  0.31190488  0.27884388  0.27635278     0.05000
H2844       H  0.31840695  0.28843730  0.24696739    -0.00800
H2845       H  0.29515653  0.30583434  0.26418167     0.00700
H2846       H  0.41301062  0.35756399  0.29447610     0.04300
H2847       H  0.38971493  0.37192405  0.31392958     0.06300
H2848       H  0.39368402  0.38385449  0.28496165     0.07100
C2849       C  0.64465262  0.17039989  0.87703355    -0.22500
C2850       C  0.66065986  0.16605544  0.85785270     0.09500
C2851       C  0.65709915  0.18059382  0.83746633     0.09900
C2852       C  0.63927835  0.20075167  0.83747115    -0.17400
C2853       C  0.62465336  0.20647627  0.85725401    -0.27800
C2854       C  0.62660128  0.19047528  0.87696805     0.18200
C2855       C  0.68339069  0.14914387  0.86052552     0.12200
C2856       C  0.67275514  0.17538835  0.81598332    -0.12200
H2857       H  0.63757201  0.21288773  0.82229608     0.12500
C2858       C  0.61101982  0.19564779  0.89847780    -0.23000
H2859       H  0.64740015  0.15906935  0.89258683     0.08100
C2860       C  0.70758433  0.15977033  0.86578860     0.04500
C2861       C  0.72914680  0.14380635  0.86661886    -0.20200
C2862       C  0.72721692  0.11722534  0.86297743    -0.12500
C2863       C  0.70268924  0.10634042  0.85891223     0.13200
C2864       C  0.68107645  0.12253902  0.85749633    -0.23000
C2865       C  0.71063989  0.18800943  0.87080429    -0.06000
H2866       H  0.74771264  0.15218970  0.87038651     0.14700
C2867       C  0.69921441  0.07791694  0.85543072    -0.16200
H2868       H  0.66235187  0.11449973  0.85380038     0.09000
H2869       H  0.61522758  0.21519096  0.90513493     0.06900
H2870       H  0.61534896  0.18168329  0.91246687     0.08100
H2871       H  0.59029713  0.19412772  0.89434425     0.07100
H2872       H  0.66945020  0.15536211  0.81015642     0.02000
H2873       H  0.69346730  0.17804680  0.81960667     0.02500
H2874       H  0.66746490  0.18846246  0.80156621     0.06000
H2875       H  0.73079583  0.19303220  0.87504357     0.05000
H2876       H  0.69845986  0.19339340  0.88584271    -0.00800
H2877       H  0.70484494  0.19953465  0.85553737     0.00700
H2878       H  0.67896493  0.07295396  0.85150655     0.04300
H2879       H  0.70469136  0.06749877  0.87145027     0.06300
H2880       H  0.71127963  0.07127484  0.84072779     0.07100
C2881       C  0.67167691  0.30369106  0.70954950    -0.22500
C2882       C  0.68258476  0.31302980  0.73008131     0.09500
C2883       C  0.70332073  0.33034792  0.72898737     0.09900
C2884       C  0.71080148  0.34009745  0.70736087    -0.17400
C2885       C  0.69738535  0.33349864  0.68721323    -0.27800
C2886       C  0.67878478  0.31387508  0.68802574     0.18200
C2887       C  0.66841391  0.30891521  0.75192920     0.12200
C2888       C  0.71609418  0.33998379  0.75071265    -0.12200
H2889       H  0.72552185  0.35466736  0.70638711     0.12500
C2890       C  0.66495417  0.30460293  0.66673046    -0.23000
H2891       H  0.65593658  0.29011627  0.71048475     0.08100
C2892       C  0.64739062  0.32479324  0.75744546     0.04500
C2893       C  0.63326790  0.31989567  0.77754168    -0.20200
C2894       C  0.63975205  0.29970950  0.79249641    -0.12500
C2895       C  0.66102877  0.28388268  0.78708948     0.13200
C2896       C  0.67519873  0.28880953  0.76679979    -0.23000
C2897       C  0.63991969  0.34705395  0.74216878    -0.06000
H2898       H  0.61717931  0.33220477  0.78181120     0.14700
C2899       C  0.66872398  0.26112279  0.80155787    -0.16200
H2900       H  0.69131509  0.27664199  0.76233065     0.09000
H2901       H  0.64420134  0.30901728  0.66830975     0.06900
H2902       H  0.66738865  0.28352772  0.66507073     0.08100
H2903       H  0.67245344  0.31349563  0.65063625     0.07100
H2904       H  0.72414972  0.32355140  0.76051350     0.02000
H2905       H  0.70191379  0.35015410  0.76176250     0.02500
H2906       H  0.73197429  0.35349481  0.74673823     0.06000
H2907       H  0.62318775  0.35766610  0.74925358     0.05000
H2908       H  0.63473289  0.34003197  0.72461846    -0.00800
H2909       H  0.65619399  0.36070313  0.74071989     0.00700
H2910       H  0.66859596  0.24357525  0.79062998     0.04300
H2911       H  0.65567971  0.25758392  0.81632263     0.06300
H2912       H  0.68838380  0.26410243  0.80840745     0.07100
C2913       C  0.49354604  0.26419174  0.77361614    -0.22500
C2914       C  0.50444735  0.24834083  0.75662123     0.09500
C2915       C  0.52755859  0.23528721  0.76155147     0.09900
C2916       C  0.54021933  0.23992500  0.78273188    -0.17400
C2917       C  0.53029366  0.25749716  0.79885836    -0.27800
C2918       C  0.50607894  0.26881498  0.79471740     0.18200
C2919       C  0.49304349  0.24888632  0.73297224     0.12200
C2920       C  0.53902115  0.21690491  0.74428695    -0.12200
H2921       H  0.55861934  0.23102071  0.78608250     0.12500
C2922       C  0.49345573  0.28595002  0.81247961    -0.23000
H2923       H  0.47570970  0.27400769  0.76986494     0.08100
C2924       C  0.46898739  0.23769305  0.72791897     0.04500
C2925       C  0.45703289  0.24293338  0.70652353    -0.20200
C2926       C  0.46834225  0.25970909  0.69046596    -0.12500
C2927       C  0.49299898  0.26987823  0.69510710     0.13200
C2928       C  0.50510288  0.26413135  0.71617966    -0.23000
C2929       C  0.45573895  0.22073645  0.74531704    -0.06000
H2930       H  0.43816173  0.23518565  0.70293631     0.14700
C2931       C  0.50645510  0.28725558  0.67806657    -0.16200
H2932       H  0.52349843  0.27276433  0.72015282     0.09000
H2933       H  0.47398510  0.29197704  0.80693197     0.06900
H2934       H  0.50496589  0.30357319  0.81519270     0.08100
H2935       H  0.49155268  0.27552266  0.82918012     0.07100
H2936       H  0.54387894  0.22712764  0.72799678     0.02000
H2937       H  0.52501690  0.20143207  0.74042919     0.02500
H2938       H  0.55680333  0.20790118  0.75103408     0.06000
H2939       H  0.43730899  0.21318466  0.73850731     0.05000
H2940       H  0.45156716  0.23170135  0.76138053    -0.00800
H2941       H  0.46827184  0.20420562  0.74959497     0.00700
H2942       H  0.49567185  0.30543519  0.67612232     0.04300
H2943       H  0.50801088  0.27759616  0.66095691     0.06300
H2944       H  0.52612104  0.29226469  0.68389980     0.07100
C2945       C  0.43098238  0.38138557  0.88556145    -0.22500
C2946       C  0.43574548  0.35600655  0.87862555     0.09500
C2947       C  0.41518346  0.34041735  0.87122718     0.09900
C2948       C  0.39044731  0.35081270  0.87021967    -0.17400
C2949       C  0.38592562  0.37655631  0.87586649    -0.27800
C2950       C  0.40625246  0.39194089  0.88413200     0.18200
C2951       C  0.46255097  0.34676857  0.87682098     0.12200
C2952       C  0.41956022  0.31325617  0.86318111    -0.12200
H2953       H  0.37476798  0.33920592  0.86367160     0.12500
C2954       C  0.40246942  0.41943457  0.89140692    -0.23000
H2955       H  0.44681012  0.39327267  0.89133266     0.08100
C2956       C  0.47820581  0.35416566  0.85801215     0.04500
C2957       C  0.50239847  0.34289748  0.85533889    -0.20200
C2958       C  0.51120464  0.32400350  0.87073531    -0.12500
C2959       C  0.49592494  0.31734335  0.89015004     0.13200
C2960       C  0.47169405  0.32875594  0.89285028    -0.23000
C2961       C  0.46890890  0.37303803  0.84011140    -0.06000
H2962       H  0.51400180  0.34797302  0.84041415     0.14700
C2963       C  0.50463755  0.29881476  0.90855181    -0.16200
H2964       H  0.45965032  0.32328148  0.90738337     0.09000
H2965       H  0.41429314  0.43216544  0.88026977     0.06900
H2966       H  0.40858051  0.42180244  0.90972380     0.08100
H2967       H  0.38220002  0.42568532  0.89017406     0.07100
H2968       H  0.42745777  0.30162221  0.87759689     0.02000
H2969       H  0.43328327  0.31311092  0.84843454     0.02500
H2970       H  0.40148992  0.30404081  0.85730939     0.06000
H2971       H  0.48330663  0.37610228  0.82617241     0.05000
H2972       H  0.46504040  0.39184818  0.84841295    -0.00800
H2973       H  0.45103967  0.36577740  0.83196106     0.00700
H2974       H  0.50334386  0.30816219  0.92582407     0.04300
H2975       H  0.52477520  0.29266691  0.90630235     0.06300
H2976       H  0.49207588  0.28161519  0.90845477     0.07100
C2977       C  0.63546235  0.17174231  0.13194437    -0.22500
C2978       C  0.66057956  0.17462765  0.14018791     0.09500
C2979       C  0.66903251  0.19906242  0.14736408     0.09900
C2980       C  0.65237456  0.22010460  0.14575525    -0.17400
C2981       C  0.62753611  0.21779314  0.13631687    -0.27800
C2982       C  0.61881182  0.19293946  0.12982772     0.18200
C2983       C  0.67909571  0.15311830  0.13760811     0.12200
C2984       C  0.69619290  0.20329955  0.15550026    -0.12200
H2985       H  0.65937900  0.23876287  0.15105270     0.12500
C2986       C  0.59247521  0.18845962  0.11990586    -0.23000
H2987       H  0.62926897  0.15295297  0.12618159     0.08100
C2988       C  0.68679329  0.13748735  0.15636357     0.04500
C2989       C  0.70768925  0.12059299  0.15348404    -0.20200
C2990       C  0.72071759  0.11892306  0.13218955    -0.12500
C2991       C  0.71130158  0.13287142  0.11291778     0.13200
C2992       C  0.69087726  0.14997006  0.11597600    -0.23000
C2993       C  0.67316746  0.13886171  0.17935818    -0.06000
H2994       H  0.71467388  0.10970051  0.16816537     0.14700
C2995       C  0.72236124  0.13030248  0.08883527    -0.16200
H2996       H  0.68454790  0.16154436  0.10145802     0.09000
H2997       H  0.57765689  0.19465826  0.13256208     0.06900
H2998       H  0.58905379  0.16787461  0.11601496     0.08100
H2999       H  0.59030082  0.19924254  0.10343382     0.07100
H3000       H  0.70984858  0.19784001  0.14155978     0.02000
H3001       H  0.70010788  0.19153948  0.17109848     0.02500
H3002       H  0.69980175  0.22368079  0.16006431     0.06000
H3003       H  0.68153091  0.12530773  0.19212202     0.05000
H3004       H  0.65265017  0.13384597  0.17695654    -0.00800
H3005       H  0.67447951  0.15848508  0.18667228     0.00700
H3006       H  0.70682416  0.12518817  0.07651918     0.04300
H3007       H  0.73710007  0.11510901  0.08745959     0.06300
H3008       H  0.73097997  0.14882912  0.08341105     0.07100
C3009       C  0.47346376  0.35383598  0.09869461    -0.22500
C3010       C  0.45284112  0.34455135  0.11187808     0.09500
C3011       C  0.45617699  0.32236039  0.12555596     0.09900
C3012       C  0.48035859  0.31055006  0.12652116    -0.17400
C3013       C  0.50143906  0.32064506  0.11440656    -0.27800
C3014       C  0.49771978  0.34207925  0.09967977     0.18200
C3015       C  0.42834041  0.35911277  0.11257778     0.12200
C3016       C  0.43444268  0.31182046  0.13993151    -0.12200
H3017       H  0.48317836  0.29426323  0.13790039     0.12500
C3018       C  0.51877781  0.35288735  0.08464384    -0.23000
H3019       H  0.47076073  0.37066418  0.08796355     0.08100
C3020       C  0.42470615  0.37929633  0.12850693     0.04500
C3021       C  0.40024862  0.39016930  0.13111443    -0.20200
C3022       C  0.37902134  0.38130866  0.11828818    -0.12500
C3023       C  0.38317579  0.36189607  0.10130395     0.13200
C3024       C  0.40778762  0.35112711  0.09874917    -0.23000
C3025       C  0.44653537  0.38878856  0.14330637    -0.06000
H3026       H  0.39762887  0.40523919  0.14387016     0.14700
C3027       C  0.36190926  0.35169513  0.08619695    -0.16200
H3028       H  0.41086571  0.33567438  0.08646079     0.09000
H3029       H  0.52298095  0.37290490  0.08999031     0.06900
H3030       H  0.51241778  0.35290882  0.06627556     0.08100
H3031       H  0.53673998  0.34157811  0.08543256     0.07100
H3032       H  0.41826947  0.30630681  0.12846783     0.02000
H3033       H  0.42777597  0.32658082  0.15245171     0.02500
H3034       H  0.44034043  0.29460198  0.14990441     0.06000
H3035       H  0.44045293  0.40456693  0.15503559     0.05000
H3036       H  0.46218888  0.39611393  0.13204549    -0.00800
H3037       H  0.45399531  0.37288100  0.15415152     0.00700
H3038       H  0.35348513  0.36753925  0.07585773     0.04300
H3039       H  0.34691253  0.34255860  0.09709674     0.06300
H3040       H  0.36892185  0.33695043  0.07381123     0.07100
C3041       C  0.60808634  0.25662474  0.01951115    -0.22500
C3042       C  0.59003052  0.27034305  0.00648986     0.09500
C3043       C  0.57085677  0.28460731  0.01804235     0.09900
C3044       C  0.57035789  0.28506532  0.04238867    -0.17400
C3045       C  0.58890486  0.27203181  0.05546276    -0.27800
C3046       C  0.60790876  0.25744088  0.04388438     0.18200
C3047       C  0.59162940  0.26980116  0.98076169     0.12200
C3048       C  0.55135125  0.29991091  0.00467918    -0.12200
H3049       H  0.55586780  0.29629196  0.05127537     0.12500
C3050       C  0.62764683  0.24224089  0.05710305    -0.23000
H3051       H  0.62254537  0.24547516  0.01051436     0.08100
C3052       C  0.61002540  0.28438886  0.96855587     0.04500
C3053       C  0.60980766  0.28439539  0.94416856    -0.20200
C3054       C  0.59148455  0.27027850  0.93164411    -0.12500
C3055       C  0.57352888  0.25498888  0.94404333     0.13200
C3056       C  0.57392535  0.25498142  0.96839908    -0.23000
C3057       C  0.62952186  0.30037588  0.98129320    -0.06000
H3058       H  0.62366972  0.29597530  0.93484887     0.14700
C3059       C  0.55423214  0.23809837  0.93193056    -0.16200
H3060       H  0.56010129  0.24356430  0.97795269     0.09000
H3061       H  0.64036120  0.25534947  0.06697013     0.06900
H3062       H  0.63995880  0.23072139  0.04531701     0.08100
H3063       H  0.61794675  0.22887283  0.06927545     0.07100
H3064       H  0.53962153  0.28693184  0.99372462     0.02000
H3065       H  0.56127802  0.31408187  0.99344274     0.02500
H3066       H  0.53816939  0.31052224  0.01639588     0.06000
H3067       H  0.64215868  0.31106980  0.96916272     0.05000
H3068       H  0.64180973  0.28783324  0.99213452    -0.00800
H3069       H  0.61959910  0.31449634  0.99258778     0.00700
H3070       H  0.56420242  0.22502581  0.91969515     0.04300
H3071       H  0.54011147  0.24998108  0.92242508     0.06300
H3072       H  0.54328848  0.22607638  0.94438797     0.07100
C3073       C  0.64338269  0.34972221  0.22221075    -0.22500
C3074       C  0.66245734  0.33283589  0.22970628     0.09500
C3075       C  0.66875278  0.31121039  0.21615859     0.09900
C3076       C  0.65522271  0.30667005  0.19544667    -0.17400
C3077       C  0.63555969  0.32328817  0.18830809    -0.27800
C3078       C  0.63011110  0.34551007  0.20155417     0.18200
C3079       C  0.67476223  0.33863867  0.25216627     0.12200
C3080       C  0.68934917  0.29288458  0.22376091    -0.12200
H3081       H  0.65936235  0.28970127  0.18524762     0.12500
C3082       C  0.61092055  0.36561014  0.19431072    -0.23000
H3083       H  0.63890992  0.36650122  0.23258520     0.08100
C3084       C  0.69400872  0.35755357  0.25375901     0.04500
C3085       C  0.69996486  0.36800913  0.27549113    -0.20200
C3086       C  0.68698317  0.36005220  0.29558417    -0.12500
C3087       C  0.66900046  0.33978570  0.29418682     0.13200
C3088       C  0.66317482  0.32924690  0.27240191    -0.23000
C3089       C  0.70731994  0.36754942  0.23238907    -0.06000
H3090       H  0.71391905  0.38338622  0.27667039     0.14700
C3091       C  0.65441644  0.33065041  0.31521588    -0.16200
H3092       H  0.64819365  0.31491910  0.27092016     0.09000
H3093       H  0.62033356  0.38472163  0.19418203     0.06900
H3094       H  0.59476544  0.36600278  0.20686876     0.08100
H3095       H  0.60317893  0.36256583  0.17668791     0.07100
H3096       H  0.68423008  0.28454628  0.24086026     0.02000
H3097       H  0.70789333  0.30320431  0.22528440     0.02500
H3098       H  0.69184068  0.27692392  0.21119037     0.06000
H3099       H  0.72194825  0.38227988  0.23673342     0.05000
H3100       H  0.69314626  0.37640837  0.22050692    -0.00800
H3101       H  0.71709262  0.35151903  0.22330336     0.00700
H3102       H  0.64035998  0.31542312  0.31074452     0.04300
H3103       H  0.64371269  0.34687712  0.32311059     0.06300
H3104       H  0.66794728  0.32258968  0.32812801     0.07100
C3105       C  0.53245132  0.27092521  0.23463290    -0.22500
C3106       C  0.51092649  0.25489014  0.23397563     0.09500
C3107       C  0.50400125  0.24286646  0.21295819     0.09900
C3108       C  0.51793357  0.24843404  0.19266723    -0.17400
C3109       C  0.53812043  0.26624724  0.19299685    -0.27800
C3110       C  0.54609468  0.27687086  0.21440312     0.18200
C3111       C  0.49369880  0.25510387  0.25440727     0.12200
C3112       C  0.48154305  0.22476114  0.21190924    -0.12200
H3113       H  0.51208528  0.24007848  0.17629474     0.12500
C3114       C  0.56875841  0.29473331  0.21605756    -0.23000
H3115       H  0.53763322  0.28008039  0.25085499     0.08100
C3116       C  0.50004921  0.24281760  0.27542990     0.04500
C3117       C  0.48552639  0.24810210  0.29546590    -0.20200
C3118       C  0.46543764  0.26600508  0.29490926    -0.12500
C3119       C  0.45834596  0.27723148  0.27353126     0.13200
C3120       C  0.47242734  0.27141864  0.25353591    -0.23000
C3121       C  0.52248635  0.22474803  0.27676980    -0.06000
H3122       H  0.49086056  0.23948620  0.31186513     0.14700
C3123       C  0.43622625  0.29571228  0.27168512    -0.16200
H3124       H  0.46776395  0.28084645  0.23733159     0.09000
H3125       H  0.57323164  0.29978191  0.23432646     0.06900
H3126       H  0.56463101  0.31287183  0.20678235     0.08100
H3127       H  0.58597310  0.28539840  0.20848097     0.07100
H3128       H  0.46365210  0.23495857  0.21676358     0.02000
H3129       H  0.48468550  0.20861993  0.22412376     0.02500
H3130       H  0.47896772  0.21668765  0.19423738     0.06000
H3131       H  0.52461094  0.21649495  0.29441190     0.05000
H3132       H  0.54047966  0.23505639  0.27240531    -0.00800
H3133       H  0.51969482  0.20873483  0.26432328     0.00700
H3134       H  0.44058282  0.31355260  0.28137753     0.04300
H3135       H  0.41855387  0.28669848  0.27869966     0.06300
H3136       H  0.43242079  0.30125140  0.25341902     0.07100
C3137       C  0.81519150  0.62952249  0.84568572    -0.22500
C3138       C  0.81510539  0.65272069  0.85805987     0.09500
C3139       C  0.79317391  0.65961593  0.87090017     0.09900
C3140       C  0.77212174  0.64294263  0.87161302    -0.17400
C3141       C  0.77184818  0.61949033  0.85936571    -0.27800
C3142       C  0.79381386  0.61283212  0.84605971     0.18200
C3143       C  0.83729818  0.67060427  0.85654922     0.12200
C3144       C  0.79171262  0.68496176  0.88349445    -0.12200
H3145       H  0.75559009  0.64858371  0.88179578     0.12500
C3146       C  0.79479279  0.58864531  0.83180805    -0.23000
H3147       H  0.83197077  0.62462018  0.83549922     0.08100
C3148       C  0.85590951  0.67211805  0.87428085     0.04500
C3149       C  0.87334879  0.69277008  0.87452146    -0.20200
C3150       C  0.87248131  0.71193459  0.85742556    -0.12500
C3151       C  0.85517733  0.70913726  0.83865638     0.13200
C3152       C  0.83776151  0.68856707  0.83852091    -0.23000
C3153       C  0.85693818  0.65223353  0.89317513    -0.06000
H3154       H  0.88683255  0.69461915  0.88869238     0.14700
C3155       C  0.85528481  0.72749267  0.81848541    -0.16200
H3156       H  0.82369165  0.68706180  0.82476717     0.09000
H3157       H  0.79322760  0.57164997  0.84329620     0.06900
H3158       H  0.81307741  0.58697978  0.82202511     0.08100
H3159       H  0.77887319  0.58858126  0.81903861     0.07100
H3160       H  0.79402210  0.70093422  0.87094032     0.02000
H3161       H  0.80709255  0.68620170  0.89671187     0.02500
H3162       H  0.77303312  0.68751864  0.89247366     0.06000
H3163       H  0.87268293  0.65614613  0.90563305     0.05000
H3164       H  0.86022389  0.63303742  0.88537408    -0.00800
H3165       H  0.83860886  0.65193097  0.90295984     0.00700
H3166       H  0.84177081  0.72140405  0.80466640     0.04300
H3167       H  0.87481066  0.72812152  0.81085826     0.06300
H3168       H  0.84950238  0.74697894  0.82413561     0.07100
C3169       C  0.64832033  0.64979894  0.77157414    -0.22500
C3170       C  0.67033280  0.65757262  0.75956786     0.09500
C3171       C  0.69455426  0.65598510  0.77025116     0.09900
C3172       C  0.69647699  0.64406593  0.79198179    -0.17400
C3173       C  0.67460216  0.63424895  0.80309154    -0.27800
C3174       C  0.65008045  0.63859278  0.79346404     0.18200
C3175       C  0.66711801  0.66523617  0.73521211     0.12200
C3176       C  0.71816886  0.66671743  0.75872440    -0.12200
H3177       H  0.71519335  0.64121937  0.79972992     0.12500
C3178       C  0.62546474  0.63171901  0.80577130    -0.23000
H3179       H  0.62965142  0.65188719  0.76350892     0.08100
C3180       C  0.67042254  0.64711023  0.71721369     0.04500
C3181       C  0.66157044  0.65299722  0.69496453    -0.20200
C3182       C  0.64804134  0.67568208  0.69088192    -0.12500
C3183       C  0.64554356  0.69422435  0.70859278     0.13200
C3184       C  0.65555243  0.68891522  0.73055809    -0.23000
C3185       C  0.68072291  0.62057521  0.72190738    -0.06000
H3186       H  0.66270436  0.63866168  0.68134791     0.14700
C3187       C  0.63130024  0.71909561  0.70512148    -0.16200
H3188       H  0.65263404  0.70250561  0.74456763     0.09000
H3189       H  0.61533058  0.61637621  0.79605951     0.06900
H3190       H  0.61289782  0.64887785  0.80669839     0.08100
H3191       H  0.62858863  0.62527952  0.82383763     0.07100
H3192       H  0.71558852  0.68759380  0.75579673     0.02000
H3193       H  0.72160118  0.65726678  0.74179440     0.02500
H3194       H  0.73550481  0.66396929  0.76960438     0.06000
H3195       H  0.68097559  0.60858493  0.70597556     0.05000
H3196       H  0.66845661  0.61076966  0.73492493    -0.00800
H3197       H  0.70059612  0.62162300  0.72855949     0.00700
H3198       H  0.61434287  0.71968264  0.71678372     0.04300
H3199       H  0.62461424  0.72173003  0.68702479     0.06300
H3200       H  0.64411977  0.73543942  0.70937033     0.07100
C3201       C  0.75168307  0.49979954  0.77254396    -0.22500
C3202       C  0.73355507  0.49708394  0.75481606     0.09500
C3203       C  0.71015644  0.51049005  0.75620128     0.09900
C3204       C  0.70517299  0.52596939  0.77552657    -0.17400
C3205       C  0.72269607  0.52803245  0.79401640    -0.27800
C3206       C  0.74660379  0.51507305  0.79219781     0.18200
C3207       C  0.73785810  0.47825570  0.73596114     0.12200
C3208       C  0.68993459  0.50765969  0.73766571    -0.12200
H3209       H  0.68682437  0.53564303  0.77654569     0.12500
C3210       C  0.76684906  0.51696939  0.81073630    -0.23000
H3211       H  0.76956759  0.48930211  0.77127793     0.08100
C3212       C  0.74639014  0.48578073  0.71380695     0.04500
C3213       C  0.74402348  0.46861043  0.69513091    -0.20200
C3214       C  0.73311851  0.44410670  0.69812357    -0.12500
C3215       C  0.72724887  0.43577796  0.72102951     0.13200
C3216       C  0.72965041  0.45305086  0.73956205    -0.23000
C3217       C  0.75714283  0.51221372  0.70980654    -0.06000
H3218       H  0.74919543  0.47506038  0.67789335     0.14700
C3219       C  0.71844922  0.40889093  0.72639243    -0.16200
H3220       H  0.72368429  0.44733729  0.75681937     0.09000
H3221       H  0.78474005  0.50686932  0.80564425     0.06900
H3222       H  0.75988884  0.50800744  0.82701667     0.08100
H3223       H  0.77173754  0.53740086  0.81385842     0.07100
H3224       H  0.68394434  0.48727844  0.73628533     0.02000
H3225       H  0.69763710  0.51406353  0.72068849     0.02500
H3226       H  0.67261265  0.51927817  0.74155911     0.06000
H3227       H  0.76308639  0.51500813  0.69148050     0.05000
H3228       H  0.77420651  0.51511311  0.72099936    -0.00800
H3229       H  0.74256183  0.52695811  0.71410551     0.00700
H3230       H  0.71714988  0.40541100  0.74536130     0.04300
H3231       H  0.73258149  0.39516477  0.71921579     0.06300
H3232       H  0.69911172  0.40520953  0.71914997     0.07100
C3233       C  0.63759479  0.46109909  0.87562267    -0.22500
C3234       C  0.65542403  0.44110760  0.87733836     0.09500
C3235       C  0.68182261  0.44706699  0.87877531     0.09900
C3236       C  0.68987553  0.47275619  0.87678409    -0.17400
C3237       C  0.67214354  0.49257204  0.87301486    -0.27800
C3238       C  0.64556488  0.48675418  0.87352298     0.18200
C3239       C  0.64621673  0.41423511  0.87448707     0.12200
C3240       C  0.70149957  0.42624569  0.88194118    -0.12200
H3241       H  0.71019308  0.47717287  0.87679018     0.12500
C3242       C  0.62544176  0.50744062  0.87188659    -0.23000
H3243       H  0.61734854  0.45647111  0.87478540     0.08100
C3244       C  0.63250281  0.40102278  0.89193920     0.04500
C3245       C  0.62315389  0.37612245  0.88745133    -0.20200
C3246       C  0.62691031  0.36433613  0.86579944    -0.12500
C3247       C  0.64127165  0.37743466  0.84856792     0.13200
C3248       C  0.65041304  0.40222237  0.85308631    -0.23000
C3249       C  0.62777035  0.41317831  0.91522548    -0.06000
H3250       H  0.61230071  0.36607348  0.90067510     0.14700
C3251       C  0.64807416  0.36577548  0.82542636    -0.16200
H3252       H  0.66097647  0.41235402  0.83970336     0.09000
H3253       H  0.60584656  0.49962869  0.87460721     0.06900
H3254       H  0.62577430  0.51645650  0.85448993     0.08100
H3255       H  0.62892800  0.52223537  0.88538565     0.07100
H3256       H  0.70110820  0.41288532  0.86696559     0.02000
H3257       H  0.69728546  0.41542092  0.89807726     0.02500
H3258       H  0.72119520  0.43421710  0.88331734     0.06000
H3259       H  0.61714123  0.40010140  0.92701959     0.05000
H3260       H  0.61626054  0.43091145  0.91312282    -0.00800
H3261       H  0.64636793  0.41805656  0.92347196     0.00700
H3262       H  0.63917154  0.37710707  0.81127856     0.04300
H3263       H  0.64187754  0.34564173  0.82371961     0.06300
H3264       H  0.66922271  0.36602802  0.82312829     0.07100
C3265       C  0.82040528  0.63842131  0.11574926    -0.22500
C3266       C  0.82443307  0.65177217  0.13653933     0.09500
C3267       C  0.80910275  0.64592684  0.15603616     0.09900
C3268       C  0.78936723  0.62766276  0.15398845    -0.17400
C3269       C  0.78440995  0.61527330  0.13282290    -0.27800
C3270       C  0.80047330  0.62042438  0.11351898     0.18200
C3271       C  0.84095149  0.67504640  0.13601120     0.12200
C3272       C  0.81284297  0.65981407  0.17868684    -0.12200
H3273       H  0.77694441  0.62389652  0.16868877     0.12500
C3274       C  0.79609760  0.60901453  0.08981250    -0.23000
H3275       H  0.83184157  0.64333072  0.10067162     0.08100
C3276       C  0.86753094  0.67460626  0.14048907     0.04500
C3277       C  0.88185686  0.69756021  0.13890823    -0.20200
C3278       C  0.87016150  0.72100131  0.13289551    -0.12500
C3279       C  0.84328702  0.72101299  0.12814817     0.13200
C3280       C  0.82929013  0.69813817  0.12988591    -0.23000
C3281       C  0.88065988  0.64991279  0.14680680    -0.06000
H3282       H  0.90225866  0.69716665  0.14244019     0.14700
C3283       C  0.82885832  0.74465957  0.12051679    -0.16200
H3284       H  0.80888694  0.69813856  0.12622480     0.09000
H3285       H  0.81348297  0.59836025  0.08428051     0.06900
H3286       H  0.79240054  0.62464072  0.07717638     0.08100
H3287       H  0.77966833  0.59565410  0.08907044     0.07100
H3288       H  0.80967388  0.68068540  0.17623937     0.02000
H3289       H  0.83265272  0.65663511  0.18506443     0.02500
H3290       H  0.79927437  0.65294711  0.19219169     0.06000
H3291       H  0.90150539  0.65276616  0.14976457     0.05000
H3292       H  0.87825269  0.63577734  0.13256576    -0.00800
H3293       H  0.87210497  0.64201143  0.16292485     0.00700
H3294       H  0.80853896  0.74037790  0.11623187     0.04300
H3295       H  0.83786974  0.75279579  0.10468734     0.06300
H3296       H  0.82860898  0.75910314  0.13466086     0.07100
C3297       C  0.67579815  0.44459806  0.11719455    -0.22500
C3298       C  0.65463688  0.44439423  0.10223940     0.09500
C3299       C  0.64671989  0.46755136  0.09178809     0.09900
C3300       C  0.65942873  0.49050432  0.09745446    -0.17400
C3301       C  0.68008178  0.49086204  0.11308317    -0.27800
C3302       C  0.68873616  0.46737427  0.12272114     0.18200
C3303       C  0.63947963  0.42029142  0.10043924     0.12200
C3304       C  0.62496811  0.46809962  0.07463860    -0.12200
H3305       H  0.65289607  0.50840071  0.08996643     0.12500
C3306       C  0.71037052  0.46527025  0.13995337    -0.23000
H3307       H  0.68155988  0.42690008  0.12556372     0.08100
C3308       C  0.64999786  0.39744201  0.09135368     0.04500
C3309       C  0.63705940  0.37409396  0.09486382    -0.20200
C3310       C  0.61384335  0.37300496  0.10732179    -0.12500
C3311       C  0.60207521  0.39637995  0.11420005     0.13200
C3312       C  0.61525503  0.41956996  0.11094957    -0.23000
C3313       C  0.67501819  0.39760987  0.07825036    -0.06000
H3314       H  0.64594299  0.35646952  0.08897252     0.14700
C3315       C  0.57585297  0.39733202  0.12527173    -0.16200
H3316       H  0.60720045  0.43715133  0.11785682     0.09000
H3317       H  0.72568239  0.45286527  0.13264861     0.06900
H3318       H  0.70312898  0.45632396  0.15616459     0.08100
H3319       H  0.71912258  0.48377043  0.14474411     0.07100
H3320       H  0.60679925  0.46217338  0.08307400     0.02000
H3321       H  0.62923502  0.45486763  0.06004446     0.02500
H3322       H  0.62206758  0.48760925  0.06738675     0.06000
H3323       H  0.67994686  0.37825390  0.07154234     0.05000
H3324       H  0.69088948  0.40394623  0.08966777    -0.00800
H3325       H  0.67357173  0.41085926  0.06324891     0.00700
H3326       H  0.57646673  0.38925521  0.14304214     0.04300
H3327       H  0.56193675  0.38649925  0.11448950     0.06300
H3328       H  0.56870305  0.41732246  0.12683868     0.07100
C3329       C  0.70431560  0.56233077  0.01967166    -0.22500
C3330       C  0.72169638  0.57762160  0.00736158     0.09500
C3331       C  0.73996888  0.59249672  0.01939051     0.09900
C3332       C  0.74029980  0.59180500  0.04366823    -0.17400
C3333       C  0.72298588  0.57638954  0.05596501    -0.27800
C3334       C  0.70463444  0.56153652  0.04388962     0.18200
C3335       C  0.71953494  0.57850610  0.98190450     0.12200
C3336       C  0.75925316  0.60878344  0.00664514    -0.12200
H3337       H  0.75414525  0.60326463  0.05309178     0.12500
C3338       C  0.68441095  0.54554635  0.05585436    -0.23000
H3339       H  0.69002993  0.55132211  0.01028238     0.08100
C3340       C  0.72671404  0.55749554  0.96796837     0.04500
C3341       C  0.72298780  0.55885071  0.94397084    -0.20200
C3342       C  0.71250855  0.58084017  0.93359861    -0.12500
C3343       C  0.70616274  0.60228270  0.94764345     0.13200
C3344       C  0.70939632  0.60059083  0.97168302    -0.23000
C3345       C  0.73870125  0.53387240  0.97835959    -0.06000
H3346       H  0.72819242  0.54255911  0.93326589     0.14700
C3347       C  0.69698977  0.62735634  0.93759357    -0.16200
H3348       H  0.70404199  0.61662506  0.98265547     0.09000
H3349       H  0.68697495  0.52506283  0.05111444     0.06900
H3350       H  0.66510842  0.55186539  0.05011629     0.08100
H3351       H  0.68478221  0.54713334  0.07498859     0.07100
H3352       H  0.74930335  0.62387215  0.99653594     0.02000
H3353       H  0.77065007  0.59658557  0.99467587     0.02500
H3354       H  0.77271165  0.61842863  0.01875783     0.06000
H3355       H  0.74393125  0.51959726  0.96485462     0.05000
H3356       H  0.72509602  0.52456445  0.99053139    -0.00800
H3357       H  0.75641636  0.53926398  0.98785078     0.00700
H3358       H  0.67793149  0.62485870  0.92943994     0.04300
H3359       H  0.71099669  0.63441763  0.92454623     0.06300
H3360       H  0.69495641  0.64240393  0.95111721     0.07100
C3361       C  0.65661336  0.63318224  0.22419270    -0.22500
C3362       C  0.67312331  0.65338262  0.22989344     0.09500
C3363       C  0.69399796  0.65935176  0.21535432     0.09900
C3364       C  0.69825874  0.64439387  0.19544933    -0.17400
C3365       C  0.68229136  0.62345857  0.19026980    -0.27800
C3366       C  0.66083720  0.61815283  0.20450762     0.18200
C3367       C  0.66798384  0.66708158  0.25174812     0.12200
C3368       C  0.71168962  0.68128254  0.22097552    -0.12200
H3369       H  0.71445001  0.64858187  0.18426260     0.12500
C3370       C  0.64189616  0.59720217  0.19874481    -0.23000
H3371       H  0.64043286  0.62903787  0.23542814     0.08100
C3372       C  0.64764777  0.68467960  0.25331555     0.04500
C3373       C  0.63801753  0.69110092  0.27517133    -0.20200
C3374       C  0.64773477  0.67973421  0.29545030    -0.12500
C3375       C  0.67013222  0.66430810  0.29396408     0.13200
C3376       C  0.67991502  0.65824502  0.27194998    -0.23000
C3377       C  0.63516957  0.69549096  0.23189550    -0.06000
H3378       H  0.62146422  0.70361393  0.27630586     0.14700
C3379       C  0.68347188  0.65227150  0.31445336    -0.16200
H3380       H  0.69574869  0.64486152  0.27047228     0.09000
H3381       H  0.62540472  0.59706512  0.21095734     0.06900
H3382       H  0.65124798  0.57814976  0.19984782     0.08100
H3383       H  0.63424355  0.60016928  0.18098951     0.07100
H3384       H  0.72098306  0.67789230  0.23800365     0.02000
H3385       H  0.70060133  0.69943087  0.22176886     0.02500
H3386       H  0.72696840  0.68347435  0.20768377     0.06000
H3387       H  0.61959205  0.70918857  0.23629048     0.05000
H3388       H  0.62672291  0.67979390  0.22137243    -0.00800
H3389       H  0.64970693  0.70580744  0.22135785     0.00700
H3390       H  0.68307675  0.63107171  0.31266784     0.04300
H3391       H  0.67512958  0.65705062  0.33145467     0.06300
H3392       H  0.70379339  0.65865957  0.31471733     0.07100
C3393       C  0.72950565  0.49852155  0.27260120    -0.22500
C3394       C  0.74615887  0.48651564  0.25698131     0.09500
C3395       C  0.75951255  0.46423684  0.26374740     0.09900
C3396       C  0.75434109  0.45329788  0.28556571    -0.17400
C3397       C  0.73579060  0.46404448  0.30033617    -0.27800
C3398       C  0.72394101  0.48751358  0.29413042     0.18200
C3399       C  0.74574051  0.49575506  0.23276428     0.12200
C3400       C  0.77857326  0.45175179  0.24770477    -0.12200
H3401       H  0.76354860  0.43547577  0.29044000     0.12500
C3402       C  0.70507516  0.50094986  0.30988493    -0.23000
H3403       H  0.71953376  0.51577051  0.26725318     0.08100
C3404       C  0.72725624  0.48606341  0.21724788     0.04500
C3405       C  0.72294925  0.49883943  0.19633868    -0.20200
C3406       C  0.73639361  0.52127886  0.19048647    -0.12500
C3407       C  0.75550638  0.53064900  0.20578541     0.13200
C3408       C  0.76008840  0.51749917  0.22667927    -0.23000
C3409       C  0.71092322  0.46310390  0.22331628    -0.06000
H3410       H  0.70798916  0.49190944  0.18495008     0.14700
C3411       C  0.76996940  0.55533023  0.20186505    -0.16200
H3412       H  0.77377098  0.52520302  0.23899088     0.09000
H3413       H  0.69942655  0.51998535  0.30293506     0.06900
H3414       H  0.71384377  0.50403721  0.32716442     0.08100
H3415       H  0.68727134  0.48950132  0.31175602     0.07100
H3416       H  0.79410324  0.46557890  0.24353379     0.02000
H3417       H  0.76905111  0.44578173  0.23138211     0.02500
H3418       H  0.78737942  0.43450833  0.25569454     0.06000
H3419       H  0.69718816  0.45831725  0.20925534     0.05000
H3420       H  0.69969193  0.46706452  0.23928814    -0.00800
H3421       H  0.72323959  0.44608577  0.22623230     0.00700
H3422       H  0.76671619  0.56840794  0.21679190     0.04300
H3423       H  0.76407817  0.56581100  0.18611318     0.06300
H3424       H  0.79079760  0.55118277  0.20056041     0.07100
C3425       C  0.35246553  0.80854601  0.88196883    -0.22500
C3426       C  0.34707647  0.82061668  0.86086403     0.09500
C3427       C  0.36125022  0.81391650  0.84087047     0.09900
C3428       C  0.37895801  0.79357431  0.84199471    -0.17400
C3429       C  0.38234231  0.77976450  0.86263422    -0.27800
C3430       C  0.36986198  0.78811568  0.88310205     0.18200
C3431       C  0.32386605  0.83699907  0.85960000     0.12200
C3432       C  0.35671556  0.82742767  0.81820227    -0.12200
H3433       H  0.38868896  0.78724766  0.82638912     0.12500
C3434       C  0.37453010  0.77523573  0.90613050    -0.23000
H3435       H  0.34176105  0.81405934  0.89730923     0.08100
C3436       C  0.29955231  0.82576005  0.85639661     0.04500
C3437       C  0.27761143  0.84121207  0.85704084    -0.20200
C3438       C  0.27906391  0.86784006  0.86110669    -0.12500
C3439       C  0.30371559  0.87915805  0.86390116     0.13200
C3440       C  0.32576871  0.86351813  0.86308253    -0.23000
C3441       C  0.29670997  0.79725890  0.85262858    -0.06000
H3442       H  0.25909622  0.83212654  0.85482630     0.14700
C3443       C  0.30719953  0.90751854  0.86781423    -0.16200
H3444       H  0.34458170  0.87190443  0.86558478     0.09000
H3445       H  0.36779820  0.75506385  0.90576085     0.06900
H3446       H  0.36422821  0.78508413  0.92045902     0.08100
H3447       H  0.39533295  0.77569285  0.91010891     0.07100
H3448       H  0.36070957  0.84822207  0.82028146     0.02000
H3449       H  0.33648520  0.82481744  0.81272454     0.02500
H3450       H  0.36933554  0.81987666  0.80425287     0.06000
H3451       H  0.27634969  0.79159052  0.85026293     0.05000
H3452       H  0.30430106  0.78668387  0.86783865    -0.00800
H3453       H  0.30748909  0.79139839  0.83688197     0.00700
H3454       H  0.29809380  0.91325256  0.88443522     0.04300
H3455       H  0.29856916  0.91839168  0.85323492     0.06300
H3456       H  0.32777852  0.91289973  0.86882777     0.07100
C3457       C  0.47134068  0.73658307  0.75282234    -0.22500
C3458       C  0.49779876  0.73181265  0.75355138     0.09500
C3459       C  0.50974890  0.72775062  0.77521766     0.09900
C3460       C  0.49459979  0.72646626  0.79536936    -0.17400
C3461       C  0.46779176  0.72844229  0.79422243    -0.27800
C3462       C  0.45612715  0.73469650  0.77284344     0.18200
C3463       C  0.51156438  0.72677572  0.73139576     0.12200
C3464       C  0.53817830  0.72300999  0.77690902    -0.12200
H3465       H  0.50351137  0.72172506  0.81177851     0.12500
C3466       C  0.42769025  0.73897131  0.77044803    -0.23000
H3467       H  0.46223896  0.74013465  0.73623503     0.08100
C3468       C  0.50698359  0.70386105  0.71904226     0.04500
C3469       C  0.52096754  0.69880224  0.69885047    -0.20200
C3470       C  0.54025459  0.71549107  0.69085498    -0.12500
C3471       C  0.54511965  0.73842340  0.70339943     0.13200
C3472       C  0.53027327  0.74397135  0.72325757    -0.23000
C3473       C  0.48804394  0.68409293  0.72760382    -0.06000
H3474       H  0.51712687  0.68119920  0.68944276     0.14700
C3475       C  0.56652345  0.75675544  0.69749626    -0.16200
H3476       H  0.53396626  0.76139505  0.73295930     0.09000
H3477       H  0.41958928  0.72462763  0.75825883     0.06900
H3478       H  0.42421953  0.75844312  0.76334308     0.08100
H3479       H  0.41730806  0.73760773  0.78719519     0.07100
H3480       H  0.54882016  0.73999408  0.77042557     0.02000
H3481       H  0.54347102  0.70596185  0.76639666     0.02500
H3482       H  0.54425303  0.71947513  0.79508318     0.06000
H3483       H  0.48776410  0.66677324  0.71637615     0.05000
H3484       H  0.46839486  0.69220589  0.72774866    -0.00800
H3485       H  0.49328809  0.67794264  0.74540928     0.00700
H3486       H  0.55833733  0.77572506  0.69289802     0.04300
H3487       H  0.57887152  0.75024856  0.68308079     0.06300
H3488       H  0.57916342  0.75913086  0.71283062     0.07100
C3489       C  0.31937327  0.68265649  0.77545589    -0.22500
C3490       C  0.33280706  0.67914622  0.75458951     0.09500
C3491       C  0.35957725  0.68318800  0.75402252     0.09900
C3492       C  0.37239255  0.68902285  0.77459088    -0.17400
C3493       C  0.35944139  0.69007983  0.79590114    -0.27800
C3494       C  0.33241339  0.68729563  0.79635886     0.18200
C3495       C  0.32008592  0.66604810  0.73492402     0.12200
C3496       C  0.37506839  0.67943999  0.73214279    -0.12200
H3497       H  0.39308375  0.69101917  0.77430418     0.12500
C3498       C  0.31684362  0.68658020  0.81839718    -0.23000
H3499       H  0.29883313  0.67940533  0.77578454     0.08100
C3500       C  0.31498363  0.63949073  0.73618577     0.04500
C3501       C  0.31027740  0.62588337  0.71575606    -0.20200
C3502       C  0.31112543  0.63792590  0.69401255    -0.12500
C3503       C  0.31419633  0.66493004  0.69287838     0.13200
C3504       C  0.31810464  0.67868845  0.71353883    -0.23000
C3505       C  0.31623676  0.62503124  0.75882005    -0.06000
H3506       H  0.30736546  0.60530574  0.71664312     0.14700
C3507       C  0.31565304  0.67983736  0.67051216    -0.16200
H3508       H  0.32189778  0.69911669  0.71273433     0.09000
H3509       H  0.30648700  0.66799306  0.81948279     0.06900
H3510       H  0.30257079  0.70236006  0.81819362     0.08100
H3511       H  0.32839649  0.68838606  0.83433825     0.07100
H3512       H  0.36896998  0.69345462  0.71879055     0.02000
H3513       H  0.37234218  0.65965277  0.72544353     0.02500
H3514       H  0.39590481  0.68233134  0.73517255     0.06000
H3515       H  0.31269578  0.60419250  0.75639519     0.05000
H3516       H  0.30141289  0.63239016  0.77092626    -0.00800
H3517       H  0.33549338  0.62732013  0.76674836     0.00700
H3518       H  0.29989372  0.69413381  0.67004896     0.04300
H3519       H  0.31431758  0.66791272  0.65475502     0.06300
H3520       H  0.33426335  0.69015957  0.66963840     0.07100
C3521       C  0.58082084  0.62366734  0.89461253    -0.22500
C3522       C  0.56372184  0.62224780  0.87594219     0.09500
C3523       C  0.57054977  0.60831750  0.85585306     0.09900
C3524       C  0.59441613  0.59607859  0.85493569    -0.17400
C3525       C  0.61216023  0.59870482  0.87302086    -0.27800
C3526       C  0.60507133  0.61210249  0.89338166     0.18200
C3527       C  0.54001898  0.63771113  0.87652728     0.12200
C3528       C  0.55358666  0.60801146  0.83467928    -0.12200
H3529       H  0.60010755  0.58622477  0.83917991     0.12500
C3530       C  0.62259928  0.61458116  0.91398967    -0.23000
H3531       H  0.57550500  0.63450806  0.90994240     0.08100
C3532       C  0.51576869  0.62642459  0.88009132     0.04500
C3533       C  0.49370066  0.64112622  0.87620669    -0.20200
C3534       C  0.49545559  0.66698198  0.86968575    -0.12500
C3535       C  0.51978908  0.67874625  0.86773155     0.13200
C3536       C  0.54181683  0.66386516  0.87116782    -0.23000
C3537       C  0.51320597  0.59901557  0.88804034    -0.06000
H3538       H  0.47498872  0.63231055  0.87782768     0.14700
C3539       C  0.52337770  0.70640486  0.86084561    -0.16200
H3540       H  0.56056074  0.67244266  0.86863105     0.09000
H3541       H  0.61266987  0.60733986  0.92972411     0.06900
H3542       H  0.62767498  0.63505411  0.91666849     0.08100
H3543       H  0.64046130  0.60331362  0.91198963     0.07100
H3544       H  0.55046843  0.62793162  0.82851177     0.02000
H3545       H  0.53478587  0.59919674  0.83877006     0.02500
H3546       H  0.56232440  0.59691190  0.82024672     0.06000
H3547       H  0.49279404  0.59335391  0.89012404     0.05000
H3548       H  0.52286593  0.59671770  0.90505172    -0.00800
H3549       H  0.52216901  0.58575379  0.87538644     0.00700
H3550       H  0.53390046  0.71668298  0.87476374     0.04300
H3551       H  0.50510584  0.71663411  0.85782656     0.06300
H3552       H  0.53479815  0.70740229  0.84460426     0.07100
C3553       C  0.38852047  0.57493477  0.87982090    -0.22500
C3554       C  0.36494608  0.56824168  0.86975511     0.09500
C3555       C  0.35121384  0.58676826  0.85702497     0.09900
C3556       C  0.36122578  0.61162503  0.85484305    -0.17400
C3557       C  0.38499771  0.61832759  0.86456391    -0.27800
C3558       C  0.39879572  0.59973963  0.87737755     0.18200
C3559       C  0.35583326  0.54127571  0.87116232     0.12200
C3560       C  0.32646212  0.58004434  0.84500263    -0.12200
H3561       H  0.35078268  0.62575031  0.84480577     0.12500
C3562       C  0.42394838  0.60538150  0.88916334    -0.23000
H3563       H  0.39908595  0.56060032  0.88949306     0.08100
C3564       C  0.36682734  0.52212651  0.85709134     0.04500
C3565       C  0.35675904  0.49725294  0.85768371    -0.20200
C3566       C  0.33561232  0.49083710  0.87175507    -0.12500
C3567       C  0.32494606  0.50995038  0.88635286     0.13200
C3568       C  0.33515965  0.53497916  0.88574588    -0.23000
C3569       C  0.38857558  0.52813548  0.84071334    -0.06000
H3570       H  0.36488961  0.48292033  0.84621115     0.14700
C3571       C  0.30342879  0.50471194  0.90315786    -0.16200
H3572       H  0.32686512  0.54975290  0.89665833     0.09000
H3573       H  0.43924779  0.59323630  0.88148075     0.06900
H3574       H  0.42230672  0.60091271  0.90792847     0.08100
H3575       H  0.42982073  0.62570040  0.88777721     0.07100
H3576       H  0.31192918  0.57399670  0.85796462     0.02000
H3577       H  0.32978312  0.56413970  0.83253162     0.02500
H3578       H  0.31856841  0.59660280  0.83524069     0.06000
H3579       H  0.39436294  0.51108579  0.83040590     0.05000
H3580       H  0.40555480  0.53472320  0.85064517    -0.00800
H3581       H  0.38263505  0.54340774  0.82844009     0.00700
H3582       H  0.30942831  0.51056962  0.92085696     0.04300
H3583       H  0.29807248  0.48421079  0.90415266     0.06300
H3584       H  0.28628929  0.51602604  0.89813484     0.07100
C3585       C  0.29761186  0.81839105  0.12625962    -0.22500
C3586       C  0.32100726  0.82846422  0.13380061     0.09500
C3587       C  0.32252588  0.85457046  0.14013508     0.09900
C3588       C  0.30033674  0.87000084  0.13902422    -0.17400
C3589       C  0.27663339  0.85975550  0.13193144    -0.27800
C3590       C  0.27543984  0.83353115  0.12523649     0.18200
C3591       C  0.34342051  0.81086901  0.13442669     0.12200
C3592       C  0.34751194  0.86599482  0.14808199    -0.12200
H3593       H  0.30141029  0.89000667  0.14405889     0.12500
C3594       C  0.25112835  0.82127429  0.11633077    -0.23000
H3595       H  0.29673797  0.79837808  0.12119099     0.08100
C3596       C  0.34748187  0.79423054  0.15334869     0.04500
C3597       C  0.36577357  0.77456757  0.15144578    -0.20200
C3598       C  0.37996176  0.77087428  0.13096978    -0.12500
C3599       C  0.37623987  0.78796467  0.11214421     0.13200
C3600       C  0.35827505  0.80794305  0.11431650    -0.23000
C3601       C  0.33185748  0.79667796  0.17523063    -0.06000
H3602       H  0.36834285  0.76131696  0.16575576     0.14700
C3603       C  0.38915319  0.78474761  0.08889794    -0.16200
H3604       H  0.35468670  0.82042216  0.09962428     0.09000
H3605       H  0.23660650  0.82021034  0.13036134     0.06900
H3606       H  0.25445256  0.80137463  0.11014167     0.08100
H3607       H  0.24343740  0.83246075  0.10154739     0.07100
H3608       H  0.36207411  0.86414778  0.13411932     0.02000
H3609       H  0.35438457  0.85576325  0.16375564     0.02500
H3610       H  0.34547235  0.88664279  0.15245058     0.06000
H3611       H  0.33745066  0.78213935  0.18835182     0.05000
H3612       H  0.31120710  0.79397968  0.17127441    -0.00800
H3613       H  0.33474389  0.81598469  0.18291340     0.00700
H3614       H  0.37432898  0.78260511  0.07522079     0.04300
H3615       H  0.40175087  0.76776193  0.08778292     0.06300
H3616       H  0.40084494  0.80202987  0.08504018     0.07100
C3617       C  0.55392372  0.66618732  0.12352519    -0.22500
C3618       C  0.55615413  0.64572566  0.10789068     0.09500
C3619       C  0.53429343  0.63763901  0.09542136     0.09900
C3620       C  0.51050673  0.64955966  0.09959204    -0.17400
C3621       C  0.50808732  0.66951772  0.11582408    -0.27800
C3622       C  0.53027126  0.67815152  0.12775809     0.18200
C3623       C  0.58074048  0.63121828  0.10723273     0.12200
C3624       C  0.53606571  0.61638381  0.07779828    -0.12200
H3625       H  0.49358646  0.64294423  0.09047169     0.12500
C3626       C  0.52978957  0.69871593  0.14616547    -0.23000
H3627       H  0.57061216  0.67208755  0.13339599     0.08100
C3628       C  0.60354540  0.64171249  0.09804805     0.04500
C3629       C  0.62678655  0.62829544  0.10064664    -0.20200
C3630       C  0.62796328  0.60484504  0.11273853    -0.12500
C3631       C  0.60468571  0.59384178  0.12094844     0.13200
C3632       C  0.58154679  0.60720624  0.11804639    -0.23000
C3633       C  0.60342815  0.66722069  0.08581471    -0.06000
H3634       H  0.64432099  0.63689541  0.09419891     0.14700
C3635       C  0.60373006  0.56822308  0.13308889    -0.16200
H3636       H  0.56396575  0.59933278  0.12515293     0.09000
H3637       H  0.54246294  0.71479568  0.14085570     0.06900
H3638       H  0.53694218  0.69071983  0.16278503     0.08100
H3639       H  0.51054151  0.70657992  0.14953886     0.07100
H3640       H  0.54191436  0.59823982  0.08630035     0.02000
H3641       H  0.55042068  0.62151906  0.06433769     0.02500
H3642       H  0.51739835  0.61298963  0.06907423     0.06000
H3643       H  0.62275317  0.67234530  0.07914202     0.05000
H3644       H  0.59726538  0.68257560  0.09792377    -0.00800
H3645       H  0.59001348  0.66648001  0.07090063     0.00700
H3646       H  0.61317372  0.56949404  0.15027341     0.04300
H3647       H  0.61324088  0.55339920  0.12224898     0.06300
H3648       H  0.58370709  0.56182846  0.13624719     0.07100
C3649       C  0.36971925  0.51906298  0.10557645    -0.22500
C3650       C  0.35631574  0.54150146  0.11113571     0.09500
C3651       C  0.32997003  0.54016531  0.11650204     0.09900
C3652       C  0.31804169  0.51612449  0.11789563    -0.17400
C3653       C  0.33196178  0.49337977  0.11438593    -0.27800
C3654       C  0.35773956  0.49498879  0.10662426     0.18200
C3655       C  0.37063779  0.56589514  0.11323422     0.12200
C3656       C  0.31476482  0.56401354  0.12182563    -0.12200
H3657       H  0.29813013  0.51510215  0.12315891     0.12500
C3658       C  0.37313390  0.47198381  0.09901343    -0.23000
H3659       H  0.38979394  0.52031768  0.10082123     0.08100
C3660       C  0.38341816  0.57219808  0.13397023     0.04500
C3661       C  0.39538926  0.59614682  0.13602445    -0.20200
C3662       C  0.39460553  0.61428527  0.11796016    -0.12500
C3663       C  0.38236196  0.60749303  0.09681980     0.13200
C3664       C  0.37060956  0.58329747  0.09476783    -0.23000
C3665       C  0.38376068  0.55389301  0.15420053    -0.06000
H3666       H  0.40455160  0.60105190  0.15229154     0.14700
C3667       C  0.38158635  0.62535510  0.07628792    -0.16200
H3668       H  0.36082583  0.57809719  0.07887322     0.09000
H3669       H  0.38910323  0.46866648  0.11135688     0.06900
H3670       H  0.38128703  0.47563808  0.08152290     0.08100
H3671       H  0.36154054  0.45427277  0.09749238     0.07100
H3672       H  0.31507328  0.57701669  0.10659634     0.02000
H3673       H  0.32321707  0.57405777  0.13698018     0.02500
H3674       H  0.29444092  0.55950920  0.12594855     0.06000
H3675       H  0.39435829  0.56192659  0.16923934     0.05000
H3676       H  0.39323631  0.53570938  0.14902148    -0.00800
H3677       H  0.36382850  0.54973085  0.15986907     0.00700
H3678       H  0.40135834  0.63132960  0.07157074     0.04300
H3679       H  0.36979187  0.64246983  0.08038683     0.06300
H3680       H  0.37289953  0.61602795  0.06085648     0.07100
C3681       C  0.40863658  0.68540263  0.96861229    -0.22500
C3682       C  0.41377083  0.70831481  0.98040814     0.09500
C3683       C  0.41906531  0.73079696  0.96772677     0.09900
C3684       C  0.41857069  0.72997324  0.94342134    -0.17400
C3685       C  0.41315416  0.70711885  0.93141807    -0.27800
C3686       C  0.40883654  0.68429413  0.94427808     0.18200
C3687       C  0.41482323  0.70807388  0.00607205     0.12200
C3688       C  0.42538196  0.75560273  0.97987057    -0.12200
H3689       H  0.42230093  0.74738265  0.93374121     0.12500
C3690       C  0.40582133  0.65818877  0.93327709    -0.23000
H3691       H  0.40522294  0.66805425  0.97851649     0.08100
C3692       C  0.39315351  0.71388150  0.01970700     0.04500
C3693       C  0.39540493  0.71416400  0.04396886    -0.20200
C3694       C  0.41882661  0.70860310  0.05497557    -0.12500
C3695       C  0.44039083  0.70202228  0.04112178     0.13200
C3696       C  0.43805859  0.70199036  0.01685482    -0.23000
C3697       C  0.36765384  0.71958705  0.00861746    -0.06000
H3698       H  0.37875686  0.71891566  0.05439256     0.14700
C3699       C  0.46569168  0.69418123  0.05159562    -0.16200
H3700       H  0.45448417  0.69720632  0.00613831     0.09000
H3701       H  0.38594081  0.65116007  0.93594955     0.06900
H3702       H  0.41931895  0.64450985  0.94154093     0.08100
H3703       H  0.41036453  0.65785164  0.91456511     0.07100
H3704       H  0.44280681  0.75307298  0.99066086     0.02000
H3705       H  0.40916937  0.76144642  0.99117363     0.02500
H3706       H  0.42908741  0.77136213  0.96735603     0.06000
H3707       H  0.35261183  0.72362121  0.02177543     0.05000
H3708       H  0.36137628  0.70284885  0.99814722    -0.00800
H3709       H  0.36933493  0.73658459  0.99715272     0.00700
H3710       H  0.47967169  0.68805389  0.03813928     0.04300
H3711       H  0.46277885  0.67780758  0.06362641     0.06300
H3712       H  0.47435470  0.71056214  0.06105439     0.07100
C3713       C  0.51330819  0.74976919  0.27225377    -0.22500
C3714       C  0.52068676  0.73716008  0.25178830     0.09500
C3715       C  0.54284821  0.72164735  0.25186415     0.09900
C3716       C  0.55603968  0.71770493  0.27271604    -0.17400
C3717       C  0.54759900  0.72868109  0.29363780    -0.27800
C3718       C  0.52635540  0.74562696  0.29328246     0.18200
C3719       C  0.50292594  0.73674753  0.23163396     0.12200
C3720       C  0.55173424  0.70798842  0.23024462    -0.12200
H3721       H  0.57230345  0.70476816  0.27294848     0.12500
C3722       C  0.51565421  0.75826104  0.31472022    -0.23000
H3723       H  0.49623760  0.76161803  0.27213331     0.08100
C3724       C  0.48143654  0.72028057  0.23169825     0.04500
C3725       C  0.46744086  0.71680020  0.21124165    -0.20200
C3726       C  0.47453162  0.72891121  0.19045508    -0.12500
C3727       C  0.49534101  0.74642463  0.19060294     0.13200
C3728       C  0.50914825  0.75024127  0.21131925    -0.23000
C3729       C  0.47411573  0.70514438  0.25298778    -0.06000
H3730       H  0.45154419  0.70334253  0.21114502     0.14700
C3731       C  0.50465092  0.76014567  0.16920568    -0.16200
H3732       H  0.52575055  0.76278827  0.21130631     0.09000
H3733       H  0.49535983  0.75236540  0.31710956     0.06900
H3734       H  0.51638854  0.77941060  0.31260794     0.08100
H3735       H  0.52607667  0.75329674  0.33075878     0.07100
H3736       H  0.55653557  0.72223059  0.21661993     0.02000
H3737       H  0.53636036  0.69509107  0.22380046     0.02500
H3738       H  0.56908373  0.69618277  0.23348886     0.06000
H3739       H  0.45720009  0.69266233  0.24981897     0.05000
H3740       H  0.46924442  0.71840669  0.26738669    -0.00800
H3741       H  0.49033568  0.69270114  0.25832338     0.00700
H3742       H  0.50347430  0.78117763  0.17203008     0.04300
H3743       H  0.49352450  0.75544652  0.15346977     0.06300
H3744       H  0.52495432  0.75492648  0.16582391     0.07100
C3745       C  0.33618459  0.67212700  0.21618041    -0.22500
C3746       C  0.34978928  0.66526540  0.23615693     0.09500
C3747       C  0.37680811  0.66514546  0.23571706     0.09900
C3748       C  0.38961805  0.67103377  0.21508072    -0.17400
C3749       C  0.37623335  0.67650558  0.19446943    -0.27800
C3750       C  0.34900245  0.67790784  0.19530387     0.18200
C3751       C  0.33594710  0.65403573  0.25613676     0.12200
C3752       C  0.39224039  0.65740374  0.25670222    -0.12200
H3753       H  0.41037662  0.67025687  0.21496834     0.12500
C3754       C  0.33313966  0.68508941  0.17447090    -0.23000
H3755       H  0.31540935  0.67198303  0.21673434     0.08100
C3756       C  0.33195983  0.66762236  0.27699521     0.04500
C3757       C  0.32498562  0.65401682  0.29711008    -0.20200
C3758       C  0.32192765  0.62723463  0.29657412    -0.12500
C3759       C  0.32307496  0.61425796  0.27499030     0.13200
C3760       C  0.33017326  0.62786720  0.25507748    -0.23000
C3761       C  0.33543671  0.69627007  0.27800109    -0.06000
H3762       H  0.32328830  0.66409793  0.31348554     0.14700
C3763       C  0.31692595  0.58608486  0.27271031    -0.16200
H3764       H  0.33270019  0.61774171  0.23880077     0.09000
H3765       H  0.31239743  0.68621428  0.17875459     0.06900
H3766       H  0.33538673  0.67044214  0.16064511     0.08100
H3767       H  0.33916893  0.70419758  0.16792905     0.07100
H3768       H  0.38710607  0.63757859  0.26196396     0.02000
H3769       H  0.38834116  0.67064608  0.27133040     0.02500
H3770       H  0.41318391  0.65789719  0.25319230     0.06000
H3771       H  0.33143365  0.70391911  0.29561808     0.05000
H3772       H  0.32202166  0.70553753  0.26565090    -0.00800
H3773       H  0.35534499  0.70158751  0.27324058     0.00700
H3774       H  0.31654794  0.57988278  0.25428148     0.04300
H3775       H  0.29772792  0.58212961  0.28026396     0.06300
H3776       H  0.33164918  0.57434238  0.28157201     0.07100
loop_ 
_geom_bond_atom_site_label_1 
_geom_bond_atom_site_label_2 
_geom_bond_distance 
_geom_bond_site_symmetry_2 
_ccdc_geom_bond_type 
O1           C16   1.262       .  A
O1           Al9   1.893       .  S
C2           O12   1.261       .  A
C2            O3   1.266       .  A
C2         C3749   1.494       .  S
O3           Al5   1.931       .  S
O4            C6   1.254       .  A
O4           Al5   1.879       .  S
Al5          O13   1.893       .  S
Al5          O15   1.922       .  S
Al5          O14   1.784       .  S
C6           O19   1.264       .  A
C6         C3598   1.482       .  S
O7           C17   1.264       .  A
O7           Al9   1.922       .  S
O8           C21   1.263       .  A
O8          Al18   1.901       .  S
Al9          O22   1.940       .  S
Al9          O19   1.935       .  S
Al9          O14   1.787       .  S
O10          C17   1.262       .  A
O10         Al18   1.904       .  S
O11          C20   1.260       .  A
O11         Al18   1.912       .  S
O12         Al18   1.880       .  S
O13          C20   1.255       .  A
O14         Al18   1.778       .  S
O15          C16   1.267       .  A
C16        C3694   1.488       .  S
C17        C3726   1.481       .  S
C20        C3662   1.490       .  S
C21          O22   1.268       .  A
C21        C3621   1.483       .  S
O23          C38   1.259       .  A
O23         Al31   1.897       .  S
C24          O34   1.263       .  A
C24          O25   1.264       .  A
C24        C3493   1.474       .  S
O25         Al27   1.902       .  S
O26          C28   1.259       .  A
O26         Al27   1.890       .  S
Al27         O35   1.904       .  S
Al27         O37   1.898       .  S
Al27         O36   1.779       .  S
C28          O41   1.264       .  A
C28        C3461   1.477       .  S
O29          C39   1.261       .  A
O29         Al31   1.919       .  S
O30          C43   1.263       .  A
O30         Al40   1.891       .  S
Al31         O44   1.926       .  S
Al31         O41   1.929       .  S
Al31         O36   1.789       .  S
O32          C39   1.258       .  A
O32         Al40   1.896       .  S
O33          C42   1.261       .  A
O33         Al40   1.916       .  S
O34         Al40   1.905       .  S
O35          C42   1.259       .  A
O36         Al40   1.784       .  S
O37          C38   1.259       .  A
C38        C3534   1.467       .  S
C39        C3429   1.476       .  S
C42        C3557   1.480       .  S
C43          O44   1.268       .  A
C43        C3685   1.483       .  S
O45          C60   1.259       .  A
O45         Al53   1.876       .  S
C46          O56   1.259       .  A
C46          O47   1.264       .  A
C46        C3365   1.469       .  S
O47         Al49   1.918       .  S
O48          C50   1.256       .  A
O48         Al49   1.888       .  S
Al49         O57   1.910       .  S
Al49         O59   1.916       .  S
Al49         O58   1.786       .  S
C50          O63   1.263       .  A
C50        C3269   1.481       .  S
O51          C61   1.263       .  A
O51         Al53   1.907       .  S
O52          C65   1.261       .  A
O52         Al62   1.894       .  S
Al53         O66   1.934       .  S
Al53         O63   1.931       .  S
Al53         O58   1.790       .  S
O54          C61   1.263       .  A
O54         Al62   1.906       .  S
O55          C64   1.257       .  A
O55         Al62   1.902       .  S
O56         Al62   1.877       .  S
O57          C64   1.260       .  A
O58         Al62   1.776       .  S
O59          C60   1.264       .  A
C60        C3333   1.462       .  S
C61        C3406   1.478       .  S
C64        C3630   1.495       .  S
C65          O66   1.266       .  A
C65        C3301   1.481       .  S
O67          C82   1.264       .  A
O67         Al75   1.919       .  S
C68          O78   1.260       .  A
C68          O69   1.264       .  A
C68        C3173   1.466       .  S
O69         Al71   1.907       .  S
O70          C72   1.258       .  A
O70         Al71   1.884       .  S
Al71         O79   1.893       .  S
Al71         O81   1.901       .  S
Al71         O80   1.780       .  S
C72          O85   1.262       .  A
C72        C3205   1.494       .  S
O73          C83   1.265       .  A
O73         Al75   1.929       .  S
O74          C87   1.259       .  A
O74         Al84   1.876       .  S
Al75         O88   1.922       .  S
Al75         O85   1.923       .  S
Al75         O80   1.788       .  S
O76          C83   1.260       .  A
O76         Al84   1.899       .  S
O77          C86   1.258       .  A
O77         Al84   1.908       .  S
O78         Al84   1.890       .  S
O79          C86   1.256       .  A
O80         Al84   1.785       .  S
O81          C82   1.260       .  A
C82        C3237   1.487       .  S
C83        C3141   1.501       .  S
C86        C3525   1.472       .  S
C87          O88   1.267       .  A
C87        C3342   1.477       .  S
O89         C104   1.263       .  A
O89         Al97   1.899       .  S
C90         O100   1.256       .  A
C90          O91   1.264       .  A
C90        C3077   1.472       .  S
O91         Al93   1.929       .  S
O92          C94   1.258       .  A
O92         Al93   1.886       .  S
Al93        O101   1.906       .  S
Al93        O103   1.922       .  S
Al93        O102   1.784       .  S
C94         O107   1.265       .  A
C94        C2981   1.502       .  S
O95         C105   1.263       .  A
O95         Al97   1.906       .  S
O96         C109   1.258       .  A
O96        Al106   1.889       .  S
Al97        O110   1.944       .  S
Al97        O107   1.940       .  S
Al97        O102   1.788       .  S
O98         C105   1.263       .  A
O98        Al106   1.914       .  S
O99         C108   1.258       .  A
O99        Al106   1.901       .  S
O100       Al106   1.873       .  S
O101        C108   1.261       .  A
O102       Al106   1.775       .  S
O103        C104   1.265       .  A
C104       C3045   1.480       .  S
C105       C3109   1.476       .  S
C108       C3310   1.491       .  S
C109        O110   1.267       .  A
C109       C3013   1.482       .  S
O111        C126   1.271       .  A
O111       Al119   1.942       .  S
C112        O122   1.270       .  A
C112        O113   1.262       .  A
C112       C2894   1.475       .  S
O113       Al115   1.878       .  S
O114        C116   1.259       .  A
O114       Al115   1.910       .  S
Al115       O123   1.919       .  S
Al115       O125   1.886       .  S
Al115       O124   1.780       .  S
C116        O129   1.261       .  A
C116       C2917   1.479       .  S
O117        C127   1.264       .  A
O117       Al119   1.935       .  S
O118        C131   1.267       .  A
O118       Al128   1.933       .  S
Al119       O132   1.881       .  S
Al119       O129   1.920       .  S
Al119       O124   1.787       .  S
O120        C127   1.256       .  A
O120       Al128   1.880       .  S
O121        C130   1.259       .  A
O121       Al128   1.912       .  S
O122       Al128   1.939       .  S
O123        C130   1.259       .  A
O124       Al128   1.781       .  S
O125        C126   1.263       .  A
C126       C2958   1.479       .  S
C127       C2853   1.480       .  S
C130       C3246   1.483       .  S
C131        O132   1.258       .  A
C131       C3054   1.489       .  S
O133        C148   1.260       .  A
O133       Al141   1.887       .  S
C134        O144   1.261       .  A
C134        O135   1.267       .  A
C134       C2821   1.471       .  S
O135       Al137   1.926       .  S
O136        C138   1.257       .  A
O136       Al137   1.882       .  S
Al137       O145   1.900       .  S
Al137       O147   1.912       .  S
Al137       O146   1.781       .  S
C138        O151   1.262       .  A
C138       C2734   1.484       .  S
O139        C149   1.261       .  A
O139       Al141   1.916       .  S
O140        C153   1.262       .  A
O140       Al150   1.883       .  S
Al141       O154   1.933       .  S
Al141       O151   1.924       .  S
Al141       O146   1.784       .  S
O142        C149   1.260       .  A
O142       Al150   1.908       .  S
O143        C152   1.261       .  A
O143       Al150   1.920       .  S
O144       Al150   1.876       .  S
O145        C152   1.256       .  A
O146       Al150   1.779       .  S
O147        C148   1.263       .  A
C148       C2757   1.472       .  S
C149       C2798   1.475       .  S
C152       C3022   1.499       .  S
C153        O154   1.269       .  A
C153       C3653   1.481       .  S
O155        C170   1.271       .  A
O155       Al163   1.960       .  S
C156        O166   1.267       .  A
C156        O157   1.259       .  A
C156       C2693   1.470       .  S
O157       Al159   1.874       .  S
O158        C160   1.262       .  A
O158       Al159   1.907       .  S
Al159       O167   1.911       .  S
Al159       O169   1.880       .  S
Al159       O168   1.772       .  S
C160        O173   1.265       .  A
C160       C2670   1.482       .  S
O161        C171   1.268       .  A
O161       Al163   1.958       .  S
O162        C175   1.267       .  A
O162       Al172   1.928       .  S
Al163       O176   1.886       .  S
Al163       O173   1.917       .  S
Al163       O168   1.789       .  S
O164        C171   1.251       .  A
O164       Al172   1.867       .  S
O165        C174   1.254       .  A
O165       Al172   1.890       .  S
O166       Al172   1.930       .  S
O167        C174   1.258       .  A
O168       Al172   1.778       .  S
O169        C170   1.260       .  A
C170       C3566   1.487       .  S
C171       C2629   1.493       .  S
C174       C2949   1.469       .  S
C175        O176   1.262       .  A
C175       C2766   1.488       .  S
O177        C192   1.258       .  A
O177       Al185   1.880       .  S
C178        O188   1.263       .  A
C178        O179   1.268       .  A
C178       C3086   1.475       .  S
O179       Al181   1.932       .  S
O180        C182   1.255       .  A
O180       Al181   1.880       .  S
Al181       O189   1.900       .  S
Al181       O191   1.913       .  S
Al181       O190   1.781       .  S
C182        O195   1.264       .  A
C182       C2501   1.497       .  S
O183        C193   1.261       .  A
O183       Al185   1.917       .  S
O184        C197   1.266       .  A
O184       Al194   1.895       .  S
Al185       O198   1.936       .  S
Al185       O195   1.931       .  S
Al185       O190   1.786       .  S
O186        C193   1.257       .  A
O186       Al194   1.896       .  S
O187        C196   1.258       .  A
O187       Al194   1.907       .  S
O188       Al194   1.885       .  S
O189        C196   1.255       .  A
O190       Al194   1.779       .  S
O191        C192   1.264       .  A
C192       C2597   1.481       .  S
C193       C3397   1.476       .  S
C196       C2565   1.495       .  S
C197        O198   1.269       .  A
C197       C2533   1.495       .  S
O199        C214   1.261       .  A
O199       Al207   1.902       .  S
C200        O210   1.260       .  A
C200        O201   1.264       .  A
C200       C2885   1.465       .  S
O201       Al203   1.915       .  S
O202        C204   1.257       .  A
O202       Al203   1.882       .  S
Al203       O211   1.897       .  S
Al203       O213   1.916       .  S
Al203       O212   1.774       .  S
C204        O217   1.268       .  A
C204       C3214   1.493       .  S
O205        C215   1.260       .  A
O205       Al207   1.905       .  S
O206        C219   1.259       .  A
O206       Al216   1.877       .  S
Al207       O220   1.933       .  S
Al207       O217   1.938       .  S
Al207       O212   1.783       .  S
O208        C215   1.260       .  A
O208       Al216   1.904       .  S
O209        C218   1.263       .  A
O209       Al216   1.919       .  S
O210       Al216   1.900       .  S
O211        C218   1.260       .  A
O212       Al216   1.783       .  S
O213        C214   1.262       .  A
C214       C2437   1.488       .  S
C215       C2414   1.474       .  S
C218       C2478   1.483       .  S
C219        O220   1.269       .  A
C219       C2606   1.484       .  S
O221        C236   1.261       .  A
O221       Al229   1.889       .  S
C222        O232   1.261       .  A
C222        O223   1.264       .  A
C222       C3374   1.477       .  S
O223       Al225   1.924       .  S
O224        C226   1.255       .  A
O224       Al225   1.876       .  S
Al225       O233   1.906       .  S
Al225       O235   1.910       .  S
Al225       O234   1.787       .  S
C226        O239   1.262       .  A
C226       C2309   1.498       .  S
O227        C237   1.262       .  A
O227       Al229   1.918       .  S
O228        C241   1.260       .  A
O228       Al238   1.890       .  S
Al229       O242   1.938       .  S
Al229       O239   1.930       .  S
Al229       O234   1.790       .  S
O230        C237   1.261       .  A
O230       Al238   1.906       .  S
O231        C240   1.255       .  A
O231       Al238   1.896       .  S
O232       Al238   1.870       .  S
O233        C240   1.257       .  A
O234       Al238   1.778       .  S
O235        C236   1.264       .  A
C236       C2373   1.474       .  S
C237       C3717   1.481       .  S
C240       C2542   1.487       .  S
C241        O242   1.268       .  A
C241       C2341   1.477       .  S
O243        C258   1.269       .  A
O243       Al251   1.936       .  S
C244        O254   1.265       .  A
C244        O245   1.258       .  A
C244       C3182   1.456       .  S
O245       Al247   1.868       .  S
O246        C248   1.258       .  A
O246       Al247   1.895       .  S
Al247       O255   1.912       .  S
Al247       O257   1.883       .  S
Al247       O256   1.779       .  S
C248        O261   1.262       .  A
C248       C3470   1.487       .  S
O249        C259   1.263       .  A
O249       Al251   1.932       .  S
O250        C263   1.261       .  A
O250       Al260   1.903       .  S
Al251       O264   1.893       .  S
Al251       O261   1.920       .  S
Al251       O256   1.791       .  S
O252        C259   1.256       .  A
O252       Al260   1.879       .  S
O253        C262   1.257       .  A
O253       Al260   1.907       .  S
O254       Al260   1.925       .  S
O255        C262   1.258       .  A
O256       Al260   1.786       .  S
O257        C258   1.262       .  A
C258       C2286   1.473       .  S
C259       C2245   1.481       .  S
C262       C2446   1.483       .  S
C263        O264   1.261       .  A
C263       C2382   1.482       .  S
O265        C280   1.268       .  A
O265       Al273   1.923       .  S
C266        O276   1.264       .  A
C266        O267   1.265       .  A
C266       C3758   1.479       .  S
O267       Al269   1.907       .  S
O268        C270   1.255       .  A
O268       Al269   1.898       .  S
Al269       O277   1.908       .  S
Al269       O279   1.896       .  S
Al269       O278   1.794       .  S
C270        O283   1.260       .  A
C270       C2149   1.493       .  S
O271        C281   1.260       .  A
O271       Al273   1.915       .  S
O272        C285   1.257       .  A
O272       Al282   1.886       .  S
Al273       O286   1.914       .  S
Al273       O283   1.919       .  S
Al273       O278   1.798       .  S
O274        C281   1.255       .  A
O274       Al282   1.876       .  S
O275        C284   1.254       .  A
O275       Al282   1.895       .  S
O276       Al282   1.908       .  S
O277        C284   1.257       .  A
O278       Al282   1.786       .  S
O279        C280   1.265       .  A
C280       C2213   1.479       .  S
C281       C2789   1.471       .  S
C284       C2350   1.490       .  S
C285        O286   1.261       .  A
C285       C2181   1.475       .  S
O287        C302   1.268       .  A
O287       Al295   1.934       .  S
C288        O298   1.259       .  A
C288        O289   1.263       .  A
C288       C3502   1.475       .  S
O289       Al291   1.904       .  S
O290        C292   1.258       .  A
O290       Al291   1.887       .  S
Al291       O299   1.896       .  S
Al291       O301   1.890       .  S
Al291       O300   1.780       .  S
C292        O305   1.263       .  A
C292       C2661   1.474       .  S
O293        C303   1.268       .  A
O293       Al295   1.946       .  S
O294        C307   1.262       .  A
O294       Al304   1.892       .  S
Al295       O308   1.922       .  S
Al295       O305   1.923       .  S
Al295       O300   1.790       .  S
O296        C303   1.255       .  A
O296       Al304   1.884       .  S
O297        C306   1.260       .  A
O297       Al304   1.906       .  S
O298       Al304   1.899       .  S
O299        C306   1.258       .  A
O300       Al304   1.783       .  S
O301        C302   1.257       .  A
C302       C2126   1.503       .  S
C303       C2085   1.503       .  S
C306       C2277   1.480       .  S
C307        O308   1.266       .  A
C307       C2222   1.477       .  S
O309        C324   1.260       .  A
O309       Al317   1.884       .  S
C310        O320   1.257       .  A
C310        O311   1.265       .  A
C310       C2830   1.465       .  S
O311       Al313   1.923       .  S
O312        C314   1.257       .  A
O312       Al313   1.884       .  S
Al313       O321   1.905       .  S
Al313       O323   1.914       .  S
Al313       O322   1.783       .  S
C314        O327   1.263       .  A
C314       C2021   1.495       .  S
O315        C325   1.263       .  A
O315       Al317   1.908       .  S
O316        C329   1.259       .  A
O316       Al326   1.884       .  S
Al317       O330   1.939       .  S
Al317       O327   1.935       .  S
Al317       O322   1.790       .  S
O318        C325   1.263       .  A
O318       Al326   1.913       .  S
O319        C328   1.259       .  A
O319       Al326   1.906       .  S
O320       Al326   1.867       .  S
O321        C328   1.257       .  A
O322       Al326   1.777       .  S
O323        C324   1.267       .  A
C324       C2053   1.485       .  S
C325       C3118   1.476       .  S
C328       C2190   1.498       .  S
C329        O330   1.267       .  A
C329       C2574   1.478       .  S
O331        C346   1.269       .  A
O331       Al339   1.937       .  S
C332        O342   1.265       .  A
C332        O333   1.261       .  A
C332       C2702   1.468       .  S
O333       Al335   1.881       .  S
O334        C336   1.260       .  A
O334       Al335   1.908       .  S
Al335       O343   1.918       .  S
Al335       O345   1.894       .  S
Al335       O344   1.779       .  S
C336        O349   1.263       .  A
C336       C2926   1.480       .  S
O337        C347   1.265       .  A
O337       Al339   1.939       .  S
O338        C351   1.262       .  A
O338       Al348   1.910       .  S
Al339       O352   1.887       .  S
Al339       O349   1.923       .  S
Al339       O344   1.787       .  S
O340        C347   1.256       .  A
O340       Al348   1.879       .  S
O341        C350   1.258       .  A
O341       Al348   1.904       .  S
O342       Al348   1.922       .  S
O343        C350   1.260       .  A
O344       Al348   1.787       .  S
O345        C346   1.264       .  A
C346       C2469   1.481       .  S
C347       C1998   1.487       .  S
C350       C2117   1.481       .  S
C351        O352   1.259       .  A
C351       C2062   1.464       .  S
O353        C368   1.261       .  A
O353       Al361   1.890       .  S
C354        O364   1.256       .  A
C354        O355   1.261       .  A
C354       C1957   1.459       .  S
O355       Al357   1.917       .  S
O356        C358   1.259       .  A
O356       Al357   1.886       .  S
Al357       O365   1.898       .  S
Al357       O367   1.907       .  S
Al357       O366   1.783       .  S
C358        O371   1.261       .  A
C358       C2405   1.494       .  S
O359        C369   1.262       .  A
O359       Al361   1.902       .  S
O360        C373   1.260       .  A
O360       Al370   1.893       .  S
Al361       O374   1.927       .  S
Al361       O371   1.922       .  S
Al361       O366   1.785       .  S
O362        C369   1.262       .  A
O362       Al370   1.905       .  S
O363        C372   1.259       .  A
O363       Al370   1.905       .  S
O364       Al370   1.874       .  S
O365        C372   1.260       .  A
O366       Al370   1.775       .  S
O367        C368   1.264       .  A
C368       C1893   1.482       .  S
C369       C1925   1.473       .  S
C372       C1861   1.487       .  S
C373        O374   1.264       .  A
C373       C1829   1.476   1_655  S
O375        C390   1.259       .  A
O375       Al383   1.906       .  S
C376        O386   1.264       .  A
C376        O377   1.266       .  A
C376       C1701   1.478       .  S
O377       Al379   1.918       .  S
O378        C380   1.256       .  A
O378       Al379   1.874       .  S
Al379       O387   1.900       .  S
Al379       O389   1.897       .  S
Al379       O388   1.784       .  S
C380        O393   1.263       .  A
C380       C1733   1.473       .  S
O381        C391   1.260       .  A
O381       Al383   1.921       .  S
O382        C395   1.262       .  A
O382       Al392   1.882       .  S
Al383       O396   1.926       .  S
Al383       O393   1.927       .  S
Al383       O388   1.795       .  S
O384        C391   1.257       .  A
O384       Al392   1.895       .  S
O385        C394   1.258       .  A
O385       Al392   1.907       .  S
O386       Al392   1.900       .  S
O387        C394   1.256       .  A
O388       Al392   1.790       .  S
O389        C390   1.258       .  A
C390       C1765   1.478   1_655  S
C391       C2510   1.486       .  S
C394       C1797   1.484       .  S
C395        O396   1.269       .  A
C395       C1902   1.484       .  S
O397        C412   1.262       .  A
O397       Al405   1.886       .  S
C398        O408   1.259       .  A
C398        O399   1.267       .  A
C398       C1669   1.478       .  S
O399       Al401   1.933       .  S
O400        C402   1.258       .  A
O400       Al401   1.894       .  S
Al401       O409   1.905       .  S
Al401       O411   1.917       .  S
Al401       O410   1.785       .  S
C402        O415   1.263       .  A
C402       C2094   1.498       .  S
O403        C413   1.262       .  A
O403       Al405   1.904       .  S
O404        C417   1.262       .  A
O404       Al414   1.900       .  S
Al405       O418   1.944       .  S
Al405       O415   1.936       .  S
Al405       O410   1.788       .  S
O406        C413   1.263       .  A
O406       Al414   1.914       .  S
O407        C416   1.259       .  A
O407       Al414   1.912       .  S
O408       Al414   1.872       .  S
O409        C416   1.257       .  A
O410       Al414   1.777       .  S
O411        C412   1.266       .  A
C412       C1605   1.471       .  S
C413       C1637   1.469       .  S
C416       C1582   1.489       .  S
C417        O418   1.267       .  A
C417       C1541   1.483   1_455  S
O419        C434   1.262       .  A
O419       Al427   1.911       .  S
C420        O430   1.261       .  A
C420        O421   1.262       .  A
C420       C1445   1.462       .  S
O421       Al423   1.901       .  S
O422        C424   1.259       .  A
O422       Al423   1.891       .  S
Al423       O431   1.904       .  S
Al423       O433   1.903       .  S
Al423       O432   1.774       .  S
C424        O437   1.264       .  A
C424       C1422   1.481       .  S
O425        C435   1.262       .  A
O425       Al427   1.913       .  S
O426        C439   1.262       .  A
O426       Al436   1.887       .  S
Al427       O440   1.919       .  S
Al427       O437   1.926       .  S
Al427       O432   1.784       .  S
O428        C435   1.261       .  A
O428       Al436   1.910       .  S
O429        C438   1.263       .  A
O429       Al436   1.919       .  S
O430       Al436   1.900       .  S
O431        C438   1.260       .  A
O432       Al436   1.784       .  S
O433        C434   1.261       .  A
C434       C1477   1.482       .  S
C435       C2158   1.477       .  S
C438       C1509   1.486       .  S
C439        O440   1.265       .  A
C439       C1614   1.490       .  S
O441        C456   1.260       .  A
O441       Al449   1.884       .  S
C442        O452   1.260       .  A
C442        O443   1.268       .  A
C442       C1358   1.471       .  S
O443       Al445   1.931       .  S
O444        C446   1.256       .  A
O444       Al445   1.888       .  S
Al445       O453   1.906       .  S
Al445       O455   1.913       .  S
Al445       O454   1.787       .  S
C446        O459   1.260       .  A
C446       C2254   1.492       .  S
O447        C457   1.265       .  A
O447       Al449   1.923       .  S
O448        C461   1.261       .  A
O448       Al458   1.889       .  S
Al449       O462   1.932       .  S
Al449       O459   1.924       .  S
Al449       O454   1.793       .  S
O450        C457   1.258       .  A
O450       Al458   1.899       .  S
O451        C460   1.257       .  A
O451       Al458   1.903       .  S
O452       Al458   1.873       .  S
O453        C460   1.255       .  A
O454       Al458   1.782       .  S
O455        C456   1.266       .  A
C456       C1326   1.487       .  S
C457       C1381   1.496       .  S
C460       C1550   1.500       .  S
C461        O462   1.266       .  A
C461       C1870   1.479       .  S
O463        C478   1.263       .  A
O463       Al471   1.916       .  S
C464        O474   1.261       .  A
C464        O465   1.261       .  A
C464       C1262   1.472       .  S
O465       Al467   1.900       .  S
O466        C468   1.260       .  A
O466       Al467   1.893       .  S
Al467       O475   1.896       .  S
Al467       O477   1.900       .  S
Al467       O476   1.775       .  S
C468        O481   1.264       .  A
C468       C1285   1.475       .  S
O469        C479   1.262       .  A
O469       Al471   1.915       .  S
O470        C483   1.260       .  A
O470       Al480   1.888       .  S
Al471       O484   1.920       .  S
Al471       O481   1.922       .  S
Al471       O476   1.785       .  S
O472        C479   1.260       .  A
O472       Al480   1.902       .  S
O473        C482   1.265       .  A
O473       Al480   1.918       .  S
O474       Al480   1.913       .  S
O475        C482   1.259       .  A
O476       Al480   1.781       .  S
O477        C478   1.261       .  A
C478       C1806   1.497       .  S
C479       C2318   1.474       .  S
C482       C1486   1.494       .  S
C483        O484   1.265       .  A
C483       C1317   1.482       .  S
O485        C500   1.262       .  A
O485       Al493   1.898       .  S
C486        O496   1.260       .  A
C486        O487   1.265       .  A
C486       C1221   1.466       .  S
O487       Al489   1.926       .  S
O488        C490   1.257       .  A
O488       Al489   1.884       .  S
Al489       O497   1.911       .  S
Al489       O499   1.917       .  S
Al489       O498   1.784       .  S
C490        O503   1.266       .  A
C490       C1989   1.485       .  S
O491        C501   1.263       .  A
O491       Al493   1.925       .  S
O492        C505   1.263       .  A
O492       Al502   1.888       .  S
Al493       O506   1.945       .  S
Al493       O503   1.938       .  S
Al493       O498   1.787       .  S
O494        C501   1.258       .  A
O494       Al502   1.901       .  S
O495        C504   1.257       .  A
O495       Al502   1.902       .  S
O496       Al502   1.890       .  S
O497        C504   1.261       .  A
O498       Al502   1.777       .  S
O499        C500   1.264       .  A
C500       C1157   1.481       .  S
C501       C1198   1.480       .  S
C504       C1838   1.489       .  S
C505        O506   1.269       .  A
C505       C1573   1.499   1_545  S
O507        C522   1.268       .  A
O507       Al515   1.942       .  S
C508        O518   1.265       .  A
C508        O509   1.257       .  A
C508       C1125   1.469       .  S
O509       Al511   1.868       .  S
O510        C512   1.261       .  A
O510       Al511   1.909       .  S
Al511       O519   1.909       .  S
Al511       O521   1.880       .  S
Al511       O520   1.779       .  S
C512        O525   1.261       .  A
C512       C1093   1.481       .  S
O513        C523   1.265       .  A
O513       Al515   1.933       .  S
O514        C527   1.266       .  A
O514       Al524   1.922       .  S
Al515       O528   1.892       .  S
Al515       O525   1.910       .  S
Al515       O520   1.788       .  S
O516        C523   1.257       .  A
O516       Al524   1.888       .  S
O517        C526   1.259       .  A
O517       Al524   1.903       .  S
O518       Al524   1.931       .  S
O519        C526   1.261       .  A
O520       Al524   1.785       .  S
O521        C522   1.259       .  A
C522       C1518   1.483   1_545  S
C523       C2030   1.481       .  S
C526       C1774   1.489       .  S
C527        O528   1.261       .  A
C527       C1166   1.488       .  S
O529        C544   1.260       .  A
O529       Al537   1.902       .  S
C530        O540   1.269       .  A
C530        O531   1.270       .  A
C530       C1710   1.474       .  S
O531       Al533   1.916       .  S
O532        C534   1.253       .  A
O532       Al533   1.867       .  S
Al533       O541   1.899       .  S
Al533       O543   1.887       .  S
Al533       O542   1.778       .  S
C534        O547   1.259       .  A
C534       C1294   1.469       .  S
O535        C545   1.258       .  A
O535       Al537   1.923       .  S
O536        C549   1.270       .  A
O536       Al546   1.896       .  S
Al537       O550   1.921       .  S
Al537       O547   1.910       .  S
Al537       O542   1.789       .  S
O538        C545   1.254       .  A
O538       Al546   1.895       .  S
O539        C548   1.253       .  A
O539       Al546   1.906       .  S
O540       Al546   1.905       .  S
O541        C548   1.251       .  A
O542       Al546   1.793       .  S
O543        C544   1.258       .  A
C544        C997   1.474       .  S
C545       C2990   1.481       .  S
C548       C1038   1.473       .  S
C549        O550   1.270       .  A
C549       C1061   1.490       .  S
O551        C566   1.261       .  A
O551       Al559   1.891       .  S
C552        O562   1.258       .  A
C552        O553   1.260       .  A
C552       C1966   1.460       .  S
O553       Al555   1.909       .  S
O554        C556   1.260       .  A
O554       Al555   1.887       .  S
Al555       O563   1.897       .  S
Al555       O565   1.901       .  S
Al555       O564   1.783       .  S
C556        O569   1.264       .  A
C556       C2862   1.488       .  S
O557        C567   1.260       .  A
O557       Al559   1.906       .  S
O558        C571   1.261       .  A
O558       Al568   1.892       .  S
Al559       O572   1.933       .  S
Al559       O569   1.933       .  S
Al559       O564   1.787       .  S
O560        C567   1.263       .  A
O560       Al568   1.916       .  S
O561        C570   1.263       .  A
O561       Al568   1.926       .  S
O562       Al568   1.889       .  S
O563        C570   1.261       .  A
O564       Al568   1.779       .  S
O565        C566   1.260       .  A
C566       C1070   1.475       .  S
C567       C1390   1.471       .  S
C570        C965   1.494       .  S
C571        O572   1.266       .  A
C571        C942   1.488   1_545  S
O573        C588   1.276       .  A
O573       Al581   1.953       .  S
C574        O584   1.269       .  A
C574        O575   1.265       .  A
C574       C1253   1.469       .  S
O575       Al577   1.891       .  S
O576        C578   1.250       .  A
O576       Al577   1.877       .  S
Al577       O585   1.893       .  S
Al577       O587   1.892       .  S
Al577       O586   1.779       .  S
C578        O591   1.260       .  A
C578       C1413   1.489       .  S
O579        C589   1.269       .  A
O579       Al581   1.949       .  S
O580        C593   1.261       .  A
O580       Al590   1.908       .  S
Al581       O594   1.889       .  S
Al581       O591   1.930       .  S
Al581       O586   1.793       .  S
O582        C589   1.254       .  A
O582       Al590   1.867       .  S
O583        C592   1.257       .  A
O583       Al590   1.909       .  S
O584       Al590   1.936       .  S
O585        C592   1.252       .  A
O586       Al590   1.788       .  S
O587        C588   1.266       .  A
C588        C869   1.498       .  S
C589       C3278   1.501       .  S
C592       C1006   1.493       .  S
C593        O594   1.257       .  A
C593        C910   1.481       .  S
O595        C610   1.262       .  A
O595       Al603   1.894       .  S
C596        O606   1.260       .  A
C596        O597   1.267       .  A
C596       C1349   1.473       .  S
O597       Al599   1.935       .  S
O598        C600   1.256       .  A
O598       Al599   1.884       .  S
Al599       O607   1.912       .  S
Al599       O609   1.922       .  S
Al599       O608   1.782       .  S
C600        O613   1.264       .  A
C600       C3150   1.486       .  S
O601        C611   1.262       .  A
O601       Al603   1.919       .  S
O602        C615   1.262       .  A
O602       Al612   1.890       .  S
Al603       O616   1.946       .  S
Al603       O613   1.937       .  S
Al603       O608   1.788       .  S
O604        C611   1.260       .  A
O604       Al612   1.900       .  S
O605        C614   1.257       .  A
O605       Al612   1.905       .  S
O606       Al612   1.882       .  S
O607        C614   1.261       .  A
O608       Al612   1.775       .  S
O609        C610   1.266       .  A
C610        C901   1.479       .  S
C611       C1646   1.480       .  S
C614        C933   1.498       .  S
C615        O616   1.270       .  A
C615        C837   1.478   1_655  S
O617        C632   1.270       .  A
O617       Al625   1.945       .  S
C618        O628   1.267       .  A
C618        O619   1.260       .  A
C618       C1454   1.477       .  S
O619       Al621   1.871       .  S
O620        C622   1.262       .  A
O620       Al621   1.910       .  S
Al621       O629   1.913       .  S
Al621       O631   1.888       .  S
Al621       O630   1.776       .  S
C622        O635   1.262       .  A
C622       C1102   1.478       .  S
O623        C633   1.266       .  A
O623       Al625   1.943       .  S
O624        C637   1.265       .  A
O624       Al634   1.919       .  S
Al625       O638   1.890       .  S
Al625       O635   1.913       .  S
Al625       O630   1.787       .  S
O626        C633   1.254       .  A
O626       Al634   1.875       .  S
O627        C636   1.258       .  A
O627       Al634   1.910       .  S
O628       Al634   1.930       .  S
O629        C636   1.259       .  A
O630       Al634   1.780       .  S
O631        C632   1.260       .  A
C632        C773   1.474       .  S
C633       C3589   1.490       .  S
C636        C878   1.492       .  S
C637        O638   1.261       .  A
C637        C805   1.472       .  S
O639        C654   1.263       .  A
O639       Al647   1.900       .  S
C640        O650   1.261       .  A
C640        O641   1.265       .  A
C640       C1678   1.477       .  S
O641       Al643   1.918       .  S
O642        C644   1.257       .  A
O642       Al643   1.883       .  S
Al643       O651   1.897       .  S
Al643       O653   1.913       .  S
Al643       O652   1.783       .  S
C644        O657   1.262       .  A
C644       C3438   1.499       .  S
O645        C655   1.264       .  A
O645       Al647   1.919       .  S
O646        C659   1.261       .  A
O646       Al656   1.892       .  S
Al647       O660   1.932       .  S
Al647       O657   1.928       .  S
Al647       O652   1.791       .  S
O648        C655   1.262       .  A
O648       Al656   1.906       .  S
O649        C658   1.258       .  A
O649       Al656   1.909       .  S
O650       Al656   1.882       .  S
O651        C658   1.258       .  A
O652       Al656   1.781       .  S
O653        C654   1.263       .  A
C654        C814   1.483       .  S
C655       C1189   1.484       .  S
C658        C846   1.492       .  S
C659        O660   1.267       .  A
C659        C741   1.479       .  S
O661        C676   1.272       .  A
O661       Al669   1.943       .  S
C662        O672   1.268       .  A
C662        O663   1.262       .  A
C662       C1134   1.470       .  S
O663       Al665   1.872       .  S
O664        C666   1.257       .  A
O664       Al665   1.905       .  S
Al665       O673   1.903       .  S
Al665       O675   1.878       .  S
Al665       O674   1.780       .  S
C666        O679   1.260       .  A
C666       C1742   1.471       .  S
O667        C677   1.263       .  A
O667       Al669   1.930       .  S
O668        C681   1.263       .  A
O668       Al678   1.909       .  S
Al669       O682   1.892       .  S
Al669       O679   1.919       .  S
Al669       O674   1.786       .  S
O670        C677   1.254       .  A
O670       Al678   1.871       .  S
O671        C680   1.256       .  A
O671       Al678   1.903       .  S
O672       Al678   1.927       .  S
O673        C680   1.256       .  A
O674       Al678   1.780       .  S
O675        C676   1.260       .  A
C676       C1029   1.489       .  S
C677       C2725   1.480       .  S
C680        C782   1.488       .  S
C681        O682   1.261       .  A
C681        C709   1.486       .  S
O683        C698   1.260       .  A
O683       Al691   1.889       .  S
C684        O694   1.257       .  A
C684        O685   1.262       .  A
C684       C1230   1.466       .  S
O685       Al687   1.922       .  S
O686        C688   1.258       .  A
O686       Al687   1.884       .  S
Al687       O695   1.905       .  S
Al687       O697   1.909       .  S
Al687       O696   1.786       .  S
C688        O701   1.265       .  A
C688       C2638   1.482       .  S
O689        C699   1.260       .  A
O689       Al691   1.902       .  S
O690        C703   1.259       .  A
O690       Al700   1.894       .  S
Al691       O704   1.938       .  S
Al691       O701   1.935       .  S
Al691       O696   1.792       .  S
O692        C699   1.262       .  A
O692       Al700   1.904       .  S
O693        C702   1.261       .  A
O693       Al700   1.903       .  S
O694       Al700   1.877       .  S
O695        C702   1.260       .  A
O696       Al700   1.777       .  S
O697        C698   1.263       .  A
C698        C718   1.471       .  S
C699       C1934   1.471       .  S
C702        C750   1.494       .  S
C703        O704   1.267       .  A
C703        C974   1.479       .  S
C705        C706   1.399       .  A
C705        C710   1.403       .  A
C705        H715   1.083       .  S
C706        C711   1.477   1_554  S
C706        C707   1.408       .  A
C707        C708   1.403       .  A
C707        C712   1.506       .  S
C708        C709   1.408       .  A
C708        H713   1.083       .  S
C709        C710   1.420       .  A
C710        C714   1.507       .  S
C711        C716   1.409       .  A
C711        C720   1.401       .  A
C712        H728   1.110   1_554  S
C712        H729   1.110   1_554  S
C712        H730   1.111       .  S
C714        H725   1.110       .  S
C714        H726   1.111       .  S
C714        H727   1.110       .  S
C716        C717   1.401       .  A
C716        C721   1.507       .  S
C717        C718   1.404       .  A
C717        H722   1.084       .  S
C718        C719   1.417       .  A
C719        C720   1.403       .  A
C719        C723   1.510       .  S
C720        H724   1.084       .  S
C721        H731   1.111       .  S
C721        H732   1.110       .  S
C721        H733   1.110       .  S
C723        H734   1.111       .  S
C723        H735   1.106       .  S
C723        H736   1.110       .  S
C737        C738   1.402       .  A
C737        C742   1.405   1_545  A
C737        H747   1.084       .  S
C738        C743   1.485       .  S
C738        C739   1.412       .  A
C739        C740   1.403       .  A
C739        C744   1.508       .  S
C740        C741   1.405   1_545  A
C740        H745   1.084       .  S
C741        C742   1.416       .  A
C742        C746   1.508       .  S
C743        C748   1.409       .  A
C743        C752   1.401       .  A
C744        H760   1.109       .  S
C744        H761   1.111       .  S
C744        H762   1.111       .  S
C746        H757   1.110       .  S
C746        H758   1.110       .  S
C746        H759   1.108       .  S
C748        C749   1.401       .  A
C748        C753   1.508       .  S
C749        C750   1.410       .  A
C749        H754   1.084       .  S
C750        C751   1.422       .  A
C751        C752   1.408       .  A
C751        C755   1.507       .  S
C752        H756   1.084       .  S
C753        H763   1.111       .  S
C753        H764   1.109       .  S
C753        H765   1.110       .  S
C755        H766   1.111       .  S
C755        H767   1.110       .  S
C755        H768   1.110       .  S
C769        C770   1.401       .  A
C769        C774   1.401       .  A
C769        H779   1.084       .  S
C770        C775   1.481       .  S
C770        C771   1.412       .  A
C771        C772   1.406   1_545  A
C771        C776   1.506       .  S
C772        C773   1.403       .  A
C772        H777   1.084       .  S
C773        C774   1.413   1_565  A
C774        C778   1.506       .  S
C775        C780   1.411       .  A
C775        C784   1.400       .  A
C776        H792   1.110       .  S
C776        H793   1.108       .  S
C776        H794   1.111       .  S
C778        H789   1.109   1_545  S
C778        H790   1.111       .  S
C778        H791   1.109       .  S
C780        C781   1.403       .  A
C780        C785   1.509       .  S
C781        C782   1.408       .  A
C781        H786   1.084       .  S
C782        C783   1.420       .  A
C783        C784   1.405       .  A
C783        C787   1.507       .  S
C784        H788   1.084       .  S
C785        H795   1.111       .  S
C785        H796   1.110       .  S
C785        H797   1.108       .  S
C787        H798   1.111       .  S
C787        H799   1.108       .  S
C787        H800   1.110       .  S
C801        C802   1.401       .  A
C801        C806   1.403       .  A
C801        H811   1.085       .  S
C802        C807   1.481   1_554  S
C802        C803   1.411       .  A
C803        C804   1.403       .  A
C803        C808   1.506       .  S
C804        C805   1.403       .  A
C804        H809   1.085       .  S
C805        C806   1.416       .  A
C806        C810   1.508       .  S
C807        C812   1.410       .  A
C807        C816   1.399       .  A
C808        H824   1.110       .  S
C808        H825   1.110       .  S
C808        H826   1.111       .  S
C810        H821   1.111       .  S
C810        H822   1.110       .  S
C810        H823   1.106       .  S
C812        C813   1.404       .  A
C812        C817   1.506       .  S
C813        C814   1.405       .  A
C813        H818   1.084       .  S
C814        C815   1.419       .  A
C815        C816   1.405       .  A
C815        C819   1.508       .  S
C816        H820   1.084       .  S
C817        H827   1.111       .  S
C817        H828   1.110       .  S
C817        H829   1.110       .  S
C819        H830   1.109       .  S
C819        H831   1.110       .  S
C819        H832   1.111       .  S
C833        C834   1.402       .  A
C833        C838   1.404       .  A
C833        H843   1.085       .  S
C834        C839   1.486       .  S
C834        C835   1.411       .  A
C835        C836   1.406       .  A
C835        C840   1.506       .  S
C836        C837   1.405       .  A
C836        H841   1.084   1_455  S
C837        C838   1.418       .  A
C838        C842   1.509       .  S
C839        C844   1.409       .  A
C839        C848   1.401       .  A
C840        H856   1.109       .  S
C840        H857   1.110       .  S
C840        H858   1.111       .  S
C842        H853   1.110       .  S
C842        H854   1.111       .  S
C842        H855   1.104       .  S
C844        C845   1.405       .  A
C844        C849   1.506       .  S
C845        C846   1.409       .  A
C845        H850   1.084       .  S
C846        C847   1.421       .  A
C847        C848   1.406       .  A
C847        C851   1.509       .  S
C848        H852   1.084       .  S
C849        H859   1.111       .  S
C849        H860   1.110       .  S
C849        H861   1.110       .  S
C851        H862   1.109       .  S
C851        H863   1.110       .  S
C851        H864   1.111       .  S
C865        C866   1.401       .  A
C865        C870   1.409   1_455  A
C865        H875   1.084       .  S
C866        C871   1.488       .  S
C866        C867   1.411       .  A
C867        C868   1.406       .  A
C867        C872   1.507       .  S
C868        C869   1.408   1_455  A
C868        H873   1.084       .  S
C869        C870   1.424       .  A
C870        C874   1.509       .  S
C871        C876   1.411       .  A
C871        C880   1.399       .  A
C872        H888   1.110       .  S
C872        H889   1.110       .  S
C872        H890   1.111       .  S
C874        H885   1.111       .  S
C874        H886   1.111       .  S
C874        H887   1.109       .  S
C876        C877   1.411       .  A
C876        C881   1.505       .  S
C877        C878   1.409       .  A
C877        H882   1.083       .  S
C878        C879   1.421       .  A
C879        C880   1.403       .  A
C879        C883   1.510       .  S
C880        H884   1.084       .  S
C881        H891   1.111       .  S
C881        H892   1.110       .  S
C881        H893   1.109       .  S
C883        H894   1.110       .  S
C883        H895   1.111       .  S
C883        H896   1.111       .  S
C897        C898   1.401       .  A
C897        C902   1.404       .  A
C897        H907   1.084       .  S
C898        C903   1.483   1_556  S
C898        C899   1.411       .  A
C899        C900   1.405       .  A
C899        C904   1.506       .  S
C900        C901   1.406       .  A
C900        H905   1.085       .  S
C901        C902   1.417       .  A
C902        C906   1.509       .  S
C903        C908   1.411       .  A
C903        C912   1.400       .  A
C904        H920   1.110       .  S
C904        H921   1.109       .  S
C904        H922   1.111       .  S
C906        H917   1.110       .  S
C906        H918   1.111       .  S
C906        H919   1.107       .  S
C908        C909   1.405       .  A
C908        C913   1.507       .  S
C909        C910   1.405       .  A
C909        H914   1.085       .  S
C910        C911   1.419       .  A
C911        C912   1.404       .  A
C911        C915   1.509       .  S
C912        H916   1.085       .  S
C913        H923   1.111       .  S
C913        H924   1.110   1_554  S
C913        H925   1.109   1_554  S
C915        H926   1.111       .  S
C915        H927   1.106       .  S
C915        H928   1.110       .  S
C929        C930   1.400       .  A
C929        C934   1.404       .  A
C929        H939   1.084       .  S
C930        C935   1.490       .  S
C930        C931   1.412       .  A
C931        C932   1.408       .  A
C931        C936   1.507       .  S
C932        C933   1.410       .  A
C932        H937   1.084       .  S
C933        C934   1.425       .  A
C934        C938   1.510       .  S
C935        C940   1.412       .  A
C935        C944   1.401       .  A
C936        H952   1.109       .  S
C936        H953   1.110       .  S
C936        H954   1.111       .  S
C938        H949   1.111       .  S
C938        H950   1.110       .  S
C938        H951   1.111       .  S
C940        C941   1.407       .  A
C940        C945   1.507       .  S
C941        C942   1.408       .  A
C941        H946   1.084   1_565  S
C942        C943   1.422       .  A
C943        C944   1.404       .  A
C943        C947   1.508       .  S
C944        H948   1.084       .  S
C945        H955   1.111       .  S
C945        H956   1.109       .  S
C945        H957   1.110       .  S
C947        H958   1.111       .  S
C947        H959   1.099       .  S
C947        H960   1.110       .  S
C961        C962   1.403       .  A
C961        C966   1.409       .  A
C961        H971   1.085       .  S
C962        C967   1.489       .  S
C962        C963   1.410       .  A
C963        C964   1.405       .  A
C963        C968   1.506       .  S
C964        C965   1.408       .  A
C964        H969   1.084       .  S
C965        C966   1.420       .  A
C966        C970   1.508       .  S
C967        C972   1.412       .  A
C967        C976   1.402       .  A
C968        H984   1.109       .  S
C968        H985   1.110       .  S
C968        H986   1.111       .  S
C970        H981   1.111       .  S
C970        H982   1.109       .  S
C970        H983   1.111       .  S
C972        C973   1.408   1_655  A
C972        C977   1.505       .  S
C973        C974   1.405       .  A
C973        H978   1.084       .  S
C974        C975   1.417   1_455  A
C975        C976   1.404       .  A
C975        C979   1.509       .  S
C976        H980   1.085       .  S
C977        H987   1.111       .  S
C977        H988   1.110       .  S
C977        H989   1.111       .  S
C979        H990   1.111       .  S
C979        H991   1.105   1_655  S
C979        H992   1.110       .  S
C993        C994   1.402       .  A
C993        C998   1.403       .  A
C993       H1003   1.084       .  S
C994        C999   1.480       .  S
C994        C995   1.412       .  A
C995        C996   1.403       .  A
C995       C1000   1.508       .  S
C996        C997   1.404   1_565  A
C996       H1001   1.084       .  S
C997        C998   1.415   1_545  A
C998       C1002   1.507   1_565  S
C999       C1004   1.409       .  A
C999       C1008   1.396       .  A
C1000      H1016   1.110       .  S
C1000      H1017   1.108       .  S
C1000      H1018   1.111       .  S
C1002      H1013   1.110       .  S
C1002      H1014   1.110       .  S
C1002      H1015   1.108       .  S
C1004      C1005   1.407       .  A
C1004      C1009   1.506       .  S
C1005      C1006   1.410       .  A
C1005      H1010   1.084       .  S
C1006      C1007   1.426       .  A
C1007      C1008   1.401       .  A
C1007      C1011   1.511       .  S
C1008      H1012   1.085       .  S
C1009      H1019   1.111       .  S
C1009      H1020   1.110       .  S
C1009      H1021   1.108       .  S
C1011      H1022   1.111       .  S
C1011      H1023   1.110       .  S
C1011      H1024   1.111       .  S
C1025      C1026   1.397       .  A
C1025      C1030   1.401   1_655  A
C1025      H1035   1.084       .  S
C1026      C1031   1.479       .  S
C1026      C1027   1.408       .  A
C1027      C1028   1.404       .  A
C1027      C1032   1.506       .  S
C1028      C1029   1.408   1_655  A
C1028      H1033   1.084       .  S
C1029      C1030   1.424       .  A
C1030      C1034   1.510       .  S
C1031      C1036   1.411       .  A
C1031      C1040   1.399       .  A
C1032      H1048   1.110       .  S
C1032      H1049   1.110       .  S
C1032      H1050   1.111       .  S
C1034      H1045   1.110       .  S
C1034      H1046   1.111       .  S
C1034      H1047   1.110       .  S
C1036      C1037   1.406       .  A
C1036      C1041   1.506       .  S
C1037      C1038   1.404       .  A
C1037      H1042   1.084       .  S
C1038      C1039   1.418       .  A
C1039      C1040   1.399       .  A
C1039      C1043   1.509       .  S
C1040      H1044   1.085       .  S
C1041      H1051   1.111       .  S
C1041      H1052   1.110       .  S
C1041      H1053   1.111       .  S
C1043      H1054   1.111       .  S
C1043      H1055   1.102       .  S
C1043      H1056   1.110       .  S
C1057      C1058   1.396       .  A
C1057      C1062   1.401       .  A
C1057      H1067   1.084       .  S
C1058      C1063   1.474   1_554  S
C1058      C1059   1.407       .  A
C1059      C1060   1.402       .  A
C1059      C1064   1.507       .  S
C1060      C1061   1.410       .  A
C1060      H1065   1.083       .  S
C1061      C1062   1.425       .  A
C1062      C1066   1.509       .  S
C1063      C1068   1.409       .  A
C1063      C1072   1.399       .  A
C1064      H1080   1.110   1_554  S
C1064      H1081   1.111   1_554  S
C1064      H1082   1.111       .  S
C1066      H1077   1.110       .  S
C1066      H1078   1.111       .  S
C1066      H1079   1.110       .  S
C1068      C1069   1.400       .  A
C1068      C1073   1.507       .  S
C1069      C1070   1.404       .  A
C1069      H1074   1.085       .  S
C1070      C1071   1.419       .  A
C1071      C1072   1.401       .  A
C1071      C1075   1.509       .  S
C1072      H1076   1.085       .  S
C1073      H1083   1.111       .  S
C1073      H1084   1.110       .  S
C1073      H1085   1.110       .  S
C1075      H1086   1.111       .  S
C1075      H1087   1.111       .  S
C1075      H1088   1.110       .  S
C1089      C1090   1.399       .  A
C1089      C1094   1.400       .  A
C1089      H1099   1.085       .  S
C1090      C1095   1.482   1_545  S
C1090      C1091   1.411       .  A
C1091      C1092   1.409       .  A
C1091      C1096   1.505   1_545  S
C1092      C1093   1.406       .  A
C1092      H1097   1.084       .  S
C1093      C1094   1.417       .  A
C1094      C1098   1.509       .  S
C1095      C1100   1.412       .  A
C1095      C1104   1.403       .  A
C1096      H1112   1.110       .  S
C1096      H1113   1.108       .  S
C1096      H1114   1.111       .  S
C1098      H1109   1.108       .  S
C1098      H1110   1.111       .  S
C1098      H1111   1.110       .  S
C1100      C1101   1.399       .  A
C1100      C1105   1.510       .  S
C1101      C1102   1.403       .  A
C1101      H1106   1.085       .  S
C1102      C1103   1.418       .  A
C1103      C1104   1.409       .  A
C1103      C1107   1.507       .  S
C1104      H1108   1.084   1_565  S
C1105      H1115   1.111       .  S
C1105      H1116   1.110       .  S
C1105      H1117   1.108       .  S
C1107      H1118   1.110   1_565  S
C1107      H1119   1.105       .  S
C1107      H1120   1.110       .  S
C1121      C1122   1.401       .  A
C1121      C1126   1.406       .  A
C1121      H1131   1.084       .  S
C1122      C1127   1.473       .  S
C1122      C1123   1.410       .  A
C1123      C1124   1.395       .  A
C1123      C1128   1.510       .  S
C1124      C1125   1.402       .  A
C1124      H1129   1.085       .  S
C1125      C1126   1.416       .  A
C1126      C1130   1.506       .  S
C1127      C1132   1.407       .  A
C1127      C1136   1.400       .  A
C1128      H1144   1.110       .  S
C1128      H1145   1.110       .  S
C1128      H1146   1.111       .  S
C1130      H1141   1.110       .  S
C1130      H1142   1.110       .  S
C1130      H1143   1.105       .  S
C1132      C1133   1.399       .  A
C1132      C1137   1.507       .  S
C1133      C1134   1.406       .  A
C1133      H1138   1.084       .  S
C1134      C1135   1.419       .  A
C1135      C1136   1.401       .  A
C1135      C1139   1.511       .  S
C1136      H1140   1.085       .  S
C1137      H1147   1.111       .  S
C1137      H1148   1.110       .  S
C1137      H1149   1.110       .  S
C1139      H1150   1.110       .  S
C1139      H1151   1.111       .  S
C1139      H1152   1.102       .  S
C1153      C1154   1.402       .  A
C1153      C1158   1.406       .  A
C1153      H1163   1.084       .  S
C1154      C1159   1.486       .  S
C1154      C1155   1.412       .  A
C1155      C1156   1.404       .  A
C1155      C1160   1.507       .  S
C1156      C1157   1.404       .  A
C1156      H1161   1.084       .  S
C1157      C1158   1.419       .  A
C1158      C1162   1.509       .  S
C1159      C1164   1.411       .  A
C1159      C1168   1.401       .  A
C1160      H1176   1.110       .  S
C1160      H1177   1.110       .  S
C1160      H1178   1.111       .  S
C1162      H1173   1.110       .  S
C1162      H1174   1.111       .  S
C1162      H1175   1.106       .  S
C1164      C1165   1.405       .  A
C1164      C1169   1.506       .  S
C1165      C1166   1.407       .  A
C1165      H1170   1.084       .  S
C1166      C1167   1.419       .  A
C1167      C1168   1.405       .  A
C1167      C1171   1.508       .  S
C1168      H1172   1.084       .  S
C1169      H1179   1.111       .  S
C1169      H1180   1.110       .  S
C1169      H1181   1.110       .  S
C1171      H1182   1.111       .  S
C1171      H1183   1.111       .  S
C1171      H1184   1.109       .  S
C1185      C1186   1.404       .  A
C1185      C1190   1.411       .  A
C1185      H1195   1.085       .  S
C1186      C1191   1.487       .  S
C1186      C1187   1.411       .  A
C1187      C1188   1.401       .  A
C1187      C1192   1.509   1_565  S
C1188      C1189   1.406       .  A
C1188      H1193   1.085       .  S
C1189      C1190   1.419       .  A
C1190      C1194   1.508       .  S
C1191      C1196   1.413   1_565  A
C1191      C1200   1.400       .  A
C1192      H1208   1.110       .  S
C1192      H1209   1.108       .  S
C1192      H1210   1.111       .  S
C1194      H1205   1.110       .  S
C1194      H1206   1.110       .  S
C1194      H1207   1.104       .  S
C1196      C1197   1.410       .  A
C1196      C1201   1.506       .  S
C1197      C1198   1.405       .  A
C1197      H1202   1.084       .  S
C1198      C1199   1.416   1_545  A
C1199      C1200   1.402       .  A
C1199      C1203   1.509       .  S
C1200      H1204   1.084       .  S
C1201      H1211   1.111       .  S
C1201      H1212   1.110       .  S
C1201      H1213   1.108       .  S
C1203      H1214   1.111       .  S
C1203      H1215   1.108       .  S
C1203      H1216   1.109       .  S
C1217      C1218   1.403       .  A
C1217      C1222   1.400       .  A
C1217      H1227   1.085       .  S
C1218      C1223   1.482       .  S
C1218      C1219   1.414       .  A
C1219      C1220   1.405       .  A
C1219      C1224   1.506       .  S
C1220      C1221   1.401       .  A
C1220      H1225   1.084       .  S
C1221      C1222   1.409       .  A
C1222      C1226   1.508       .  S
C1223      C1228   1.413       .  A
C1223      C1232   1.403       .  A
C1224      H1240   1.109       .  S
C1224      H1241   1.110       .  S
C1224      H1242   1.111       .  S
C1226      H1237   1.111       .  S
C1226      H1238   1.110       .  S
C1226      H1239   1.110       .  S
C1228      C1229   1.403       .  A
C1228      C1233   1.507       .  S
C1229      C1230   1.402       .  A
C1229      H1234   1.083       .  S
C1230      C1231   1.414       .  A
C1231      C1232   1.400       .  A
C1231      C1235   1.509       .  S
C1232      H1236   1.083       .  S
C1233      H1243   1.111       .  S
C1233      H1244   1.108       .  S
C1233      H1245   1.110       .  S
C1235      H1246   1.110       .  S
C1235      H1247   1.105       .  S
C1235      H1248   1.110       .  S
C1249      C1250   1.403       .  A
C1249      C1254   1.404       .  A
C1249      H1259   1.084       .  S
C1250      C1255   1.480       .  S
C1250      C1251   1.415       .  A
C1251      C1252   1.403       .  A
C1251      C1256   1.509       .  S
C1252      C1253   1.400       .  A
C1252      H1257   1.084       .  S
C1253      C1254   1.413       .  A
C1254      C1258   1.508       .  S
C1255      C1260   1.412       .  A
C1255      C1264   1.399       .  A
C1256      H1272   1.110       .  S
C1256      H1273   1.108       .  S
C1256      H1274   1.111       .  S
C1258      H1269   1.111       .  S
C1258      H1270   1.110       .  S
C1258      H1271   1.109       .  S
C1260      C1261   1.409       .  A
C1260      C1265   1.505       .  S
C1261      C1262   1.405       .  A
C1261      H1266   1.084       .  S
C1262      C1263   1.414       .  A
C1263      C1264   1.396       .  A
C1263      C1267   1.509       .  S
C1264      H1268   1.085       .  S
C1265      H1275   1.111       .  S
C1265      H1276   1.110       .  S
C1265      H1277   1.108       .  S
C1267      H1278   1.111       .  S
C1267      H1279   1.108       .  S
C1267      H1280   1.110       .  S
C1281      C1282   1.401       .  A
C1281      C1286   1.402       .  A
C1281      H1291   1.085   1_565  S
C1282      C1287   1.482       .  S
C1282      C1283   1.413       .  A
C1283      C1284   1.404       .  A
C1283      C1288   1.507       .  S
C1284      C1285   1.403       .  A
C1284      H1289   1.084       .  S
C1285      C1286   1.415       .  A
C1286      C1290   1.509       .  S
C1287      C1292   1.414   1_565  A
C1287      C1296   1.400       .  A
C1288      H1304   1.109       .  S
C1288      H1305   1.110       .  S
C1288      H1306   1.111       .  S
C1290      H1301   1.111   1_565  S
C1290      H1302   1.110       .  S
C1290      H1303   1.110       .  S
C1292      C1293   1.408       .  A
C1292      C1297   1.505       .  S
C1293      C1294   1.402       .  A
C1293      H1298   1.084       .  S
C1294      C1295   1.414       .  A
C1295      C1296   1.396   1_545  A
C1295      C1299   1.510       .  S
C1296      H1300   1.085       .  S
C1297      H1307   1.111       .  S
C1297      H1308   1.109       .  S
C1297      H1309   1.110   1_545  S
C1299      H1310   1.109       .  S
C1299      H1311   1.110   1_545  S
C1299      H1312   1.111   1_545  S
C1313      C1314   1.400       .  A
C1313      C1318   1.404       .  A
C1313      H1323   1.084       .  S
C1314      C1319   1.478       .  S
C1314      C1315   1.408       .  A
C1315      C1316   1.401       .  A
C1315      C1320   1.507       .  S
C1316      C1317   1.407       .  A
C1316      H1321   1.083       .  S
C1317      C1318   1.418       .  A
C1318      C1322   1.508       .  S
C1319      C1324   1.408       .  A
C1319      C1328   1.398       .  A
C1320      H1336   1.110       .  S
C1320      H1337   1.110       .  S
C1320      H1338   1.111       .  S
C1322      H1333   1.109       .  S
C1322      H1334   1.111       .  S
C1322      H1335   1.111       .  S
C1324      C1325   1.403       .  A
C1324      C1329   1.506       .  S
C1325      C1326   1.409       .  A
C1325      H1330   1.083       .  S
C1326      C1327   1.422       .  A
C1327      C1328   1.402       .  A
C1327      C1331   1.509       .  S
C1328      H1332   1.084       .  S
C1329      H1339   1.111       .  S
C1329      H1340   1.110       .  S
C1329      H1341   1.110       .  S
C1331      H1342   1.111       .  S
C1331      H1343   1.110       .  S
C1331      H1344   1.111       .  S
C1345      C1346   1.398       .  A
C1345      C1350   1.400       .  A
C1345      H1355   1.085       .  S
C1346      C1351   1.476       .  S
C1346      C1347   1.411       .  A
C1347      C1348   1.403       .  A
C1347      C1352   1.506       .  S
C1348      C1349   1.403       .  A
C1348      H1353   1.084       .  S
C1349      C1350   1.417       .  A
C1350      C1354   1.506       .  S
C1351      C1356   1.410       .  A
C1351      C1360   1.401       .  A
C1352      H1368   1.110       .  S
C1352      H1369   1.110       .  S
C1352      H1370   1.111       .  S
C1354      H1365   1.109       .  S
C1354      H1366   1.110       .  S
C1354      H1367   1.107       .  S
C1356      C1357   1.397       .  A
C1356      C1361   1.508       .  S
C1357      C1358   1.402       .  A
C1357      H1362   1.085       .  S
C1358      C1359   1.416       .  A
C1359      C1360   1.405       .  A
C1359      C1363   1.505       .  S
C1360      H1364   1.085       .  S
C1361      H1371   1.111       .  S
C1361      H1372   1.110       .  S
C1361      H1373   1.110       .  S
C1363      H1374   1.110       .  S
C1363      H1375   1.104       .  S
C1363      H1376   1.110       .  S
C1377      C1378   1.395       .  A
C1377      C1382   1.399       .  A
C1377      H1387   1.085       .  S
C1378      C1383   1.482       .  S
C1378      C1379   1.408       .  A
C1379      C1380   1.411       .  A
C1379      C1384   1.504       .  S
C1380      C1381   1.411       .  A
C1380      H1385   1.084       .  S
C1381      C1382   1.428       .  A
C1382      C1386   1.512       .  S
C1383      C1388   1.412       .  A
C1383      C1392   1.404   1_565  A
C1384      H1400   1.110       .  S
C1384      H1401   1.109       .  S
C1384      H1402   1.111       .  S
C1386      H1397   1.110       .  S
C1386      H1398   1.111       .  S
C1386      H1399   1.110       .  S
C1388      C1389   1.402       .  A
C1388      C1393   1.508       .  S
C1389      C1390   1.400   1_565  A
C1389      H1394   1.079       .  S
C1390      C1391   1.413       .  A
C1391      C1392   1.405       .  A
C1391      C1395   1.507       .  S
C1392      H1396   1.084       .  S
C1393      H1403   1.111       .  S
C1393      H1404   1.110       .  S
C1393      H1405   1.109       .  S
C1395      H1406   1.110       .  S
C1395      H1407   1.109       .  S
C1395      H1408   1.110       .  S
C1409      C1410   1.398       .  A
C1409      C1414   1.398   1_455  A
C1409      H1419   1.085       .  S
C1410      C1415   1.489       .  S
C1410      C1411   1.415   1_455  A
C1411      C1412   1.412       .  A
C1411      C1416   1.505       .  S
C1412      C1413   1.406       .  A
C1412      H1417   1.084       .  S
C1413      C1414   1.423       .  A
C1414      C1418   1.512   1_655  S
C1415      C1420   1.415       .  A
C1415      C1424   1.403       .  A
C1416      H1432   1.109       .  S
C1416      H1433   1.110       .  S
C1416      H1434   1.111       .  S
C1418      H1429   1.111       .  S
C1418      H1430   1.109   1_455  S
C1418      H1431   1.110       .  S
C1420      C1421   1.405       .  A
C1420      C1425   1.507       .  S
C1421      C1422   1.404       .  A
C1421      H1426   1.084       .  S
C1422      C1423   1.415       .  A
C1423      C1424   1.405       .  A
C1423      C1427   1.507   1_455  S
C1424      H1428   1.084   1_455  S
C1425      H1435   1.111       .  S
C1425      H1436   1.108       .  S
C1425      H1437   1.110       .  S
C1427      H1438   1.108   1_655  S
C1427      H1439   1.110   1_655  S
C1427      H1440   1.111       .  S
C1441      C1442   1.402       .  A
C1441      C1446   1.402       .  A
C1441      H1451   1.084       .  S
C1442      C1447   1.475       .  S
C1442      C1443   1.410       .  A
C1443      C1444   1.398       .  A
C1443      C1448   1.507       .  S
C1444      C1445   1.401       .  A
C1444      H1449   1.084       .  S
C1445      C1446   1.413       .  A
C1446      C1450   1.506       .  S
C1447      C1452   1.411       .  A
C1447      C1456   1.400       .  A
C1448      H1464   1.110       .  S
C1448      H1465   1.110       .  S
C1448      H1466   1.111       .  S
C1450      H1461   1.110       .  S
C1450      H1462   1.110       .  S
C1450      H1463   1.108       .  S
C1452      C1453   1.395       .  A
C1452      C1457   1.509       .  S
C1453      C1454   1.403       .  A
C1453      H1458   1.085       .  S
C1454      C1455   1.417       .  A
C1455      C1456   1.406       .  A
C1455      C1459   1.507       .  S
C1456      H1460   1.086       .  S
C1457      H1467   1.111       .  S
C1457      H1468   1.110       .  S
C1457      H1469   1.110       .  S
C1459      H1470   1.111       .  S
C1459      H1471   1.110       .  S
C1459      H1472   1.109       .  S
C1473      C1474   1.405       .  A
C1473      C1478   1.411   1_655  A
C1473      H1483   1.084       .  S
C1474      C1479   1.483       .  S
C1474      C1475   1.410       .  A
C1475      C1476   1.397       .  A
C1475      C1480   1.509       .  S
C1476      C1477   1.404   1_655  A
C1476      H1481   1.084   1_655  S
C1477      C1478   1.416       .  A
C1478      C1482   1.507       .  S
C1479      C1484   1.407       .  A
C1479      C1488   1.401       .  A
C1480      H1496   1.109       .  S
C1480      H1497   1.111       .  S
C1480      H1498   1.111       .  S
C1482      H1493   1.110       .  S
C1482      H1494   1.111       .  S
C1482      H1495   1.111       .  S
C1484      C1485   1.402       .  A
C1484      C1489   1.507       .  S
C1485      C1486   1.410       .  A
C1485      H1490   1.083       .  S
C1486      C1487   1.423       .  A
C1487      C1488   1.406       .  A
C1487      C1491   1.509       .  S
C1488      H1492   1.084       .  S
C1489      H1499   1.111       .  S
C1489      H1500   1.110       .  S
C1489      H1501   1.110       .  S
C1491      H1502   1.111       .  S
C1491      H1503   1.110       .  S
C1491      H1504   1.110       .  S
C1505      C1506   1.405       .  A
C1505      C1510   1.409       .  A
C1505      H1515   1.084       .  S
C1506      C1511   1.488       .  S
C1506      C1507   1.411       .  A
C1507      C1508   1.402       .  A
C1507      C1512   1.508       .  S
C1508      C1509   1.406       .  A
C1508      H1513   1.083       .  S
C1509      C1510   1.417       .  A
C1510      C1514   1.507       .  S
C1511      C1516   1.412       .  A
C1511      C1520   1.405       .  A
C1512      H1528   1.109       .  S
C1512      H1529   1.111       .  S
C1512      H1530   1.111       .  S
C1514      H1525   1.111       .  S
C1514      H1526   1.111       .  S
C1514      H1527   1.109       .  S
C1516      C1517   1.401       .  A
C1516      C1521   1.508       .  S
C1517      C1518   1.405       .  A
C1517      H1522   1.084       .  S
C1518      C1519   1.414       .  A
C1519      C1520   1.409       .  A
C1519      C1523   1.506       .  S
C1520      H1524   1.084       .  S
C1521      H1531   1.111       .  S
C1521      H1532   1.109       .  S
C1521      H1533   1.111       .  S
C1523      H1534   1.111       .  S
C1523      H1535   1.111   1_565  S
C1523      H1536   1.110       .  S
C1537      C1538   1.404       .  A
C1537      C1542   1.407       .  A
C1537      H1547   1.084       .  S
C1538      C1543   1.492       .  S
C1538      C1539   1.414       .  A
C1539      C1540   1.406       .  A
C1539      C1544   1.507       .  S
C1540      C1541   1.405       .  A
C1540      H1545   1.084       .  S
C1541      C1542   1.416       .  A
C1542      C1546   1.507   1_655  S
C1543      C1548   1.411       .  A
C1543      C1552   1.403       .  A
C1544      H1560   1.110       .  S
C1544      H1561   1.111       .  S
C1544      H1562   1.111       .  S
C1546      H1557   1.110       .  S
C1546      H1558   1.110       .  S
C1546      H1559   1.108       .  S
C1548      C1549   1.403       .  A
C1548      C1553   1.508       .  S
C1549      C1550   1.409       .  A
C1549      H1554   1.084       .  S
C1550      C1551   1.423       .  A
C1551      C1552   1.411       .  A
C1551      C1555   1.508       .  S
C1552      H1556   1.084       .  S
C1553      H1563   1.111       .  S
C1553      H1564   1.109       .  S
C1553      H1565   1.110       .  S
C1555      H1566   1.111       .  S
C1555      H1567   1.111       .  S
C1555      H1568   1.110       .  S
C1569      C1570   1.402       .  A
C1569      C1574   1.410       .  A
C1569      H1579   1.084       .  S
C1570      C1575   1.488       .  S
C1570      C1571   1.409       .  A
C1571      C1572   1.403       .  A
C1571      C1576   1.508       .  S
C1572      C1573   1.410       .  A
C1572      H1577   1.083   1_565  S
C1573      C1574   1.423       .  A
C1574      C1578   1.508       .  S
C1575      C1580   1.411       .  A
C1575      C1584   1.400       .  A
C1576      H1592   1.109       .  S
C1576      H1593   1.110       .  S
C1576      H1594   1.111       .  S
C1578      H1589   1.111       .  S
C1578      H1590   1.108       .  S
C1578      H1591   1.111       .  S
C1580      C1581   1.411       .  A
C1580      C1585   1.505       .  S
C1581      C1582   1.408       .  A
C1581      H1586   1.084       .  S
C1582      C1583   1.420       .  A
C1583      C1584   1.402       .  A
C1583      C1587   1.509       .  S
C1584      H1588   1.085       .  S
C1585      H1595   1.111       .  S
C1585      H1596   1.110       .  S
C1585      H1597   1.110       .  S
C1587      H1598   1.110       .  S
C1587      H1599   1.109       .  S
C1587      H1600   1.111       .  S
C1601      C1602   1.399       .  A
C1601      C1606   1.401       .  A
C1601      H1611   1.085       .  S
C1602      C1607   1.474       .  S
C1602      C1603   1.409       .  A
C1603      C1604   1.401       .  A
C1603      C1608   1.507       .  S
C1604      C1605   1.405       .  A
C1604      H1609   1.085       .  S
C1605      C1606   1.416       .  A
C1606      C1610   1.508       .  S
C1607      C1612   1.406       .  A
C1607      C1616   1.397       .  A
C1608      H1624   1.110       .  S
C1608      H1625   1.110       .  S
C1608      H1626   1.111       .  S
C1610      H1621   1.110       .  S
C1610      H1622   1.110       .  S
C1610      H1623   1.105       .  S
C1612      C1613   1.401       .  A
C1612      C1617   1.507       .  S
C1613      C1614   1.410       .  A
C1613      H1618   1.083       .  S
C1614      C1615   1.424       .  A
C1615      C1616   1.402       .  A
C1615      C1619   1.509       .  S
C1616      H1620   1.084       .  S
C1617      H1627   1.111       .  S
C1617      H1628   1.110       .  S
C1617      H1629   1.110       .  S
C1619      H1630   1.111       .  S
C1619      H1631   1.110       .  S
C1619      H1632   1.110       .  S
C1633      C1634   1.405   1_655  A
C1633      C1638   1.406   1_655  A
C1633      H1643   1.084       .  S
C1634      C1639   1.485   1_455  S
C1634      C1635   1.413       .  A
C1635      C1636   1.401       .  A
C1635      C1640   1.508       .  S
C1636      C1637   1.401       .  A
C1636      H1641   1.085       .  S
C1637      C1638   1.413       .  A
C1638      C1642   1.507   1_455  S
C1639      C1644   1.410       .  A
C1639      C1648   1.405       .  A
C1640      H1656   1.110       .  S
C1640      H1657   1.110       .  S
C1640      H1658   1.111       .  S
C1642      H1653   1.111       .  S
C1642      H1654   1.110       .  S
C1642      H1655   1.108   1_655  S
C1644      C1645   1.396       .  A
C1644      C1649   1.509       .  S
C1645      C1646   1.404       .  A
C1645      H1650   1.084       .  S
C1646      C1647   1.418       .  A
C1647      C1648   1.410       .  A
C1647      C1651   1.507       .  S
C1648      H1652   1.084   1_655  S
C1649      H1659   1.111       .  S
C1649      H1660   1.109       .  S
C1649      H1661   1.110       .  S
C1651      H1662   1.110       .  S
C1651      H1663   1.104       .  S
C1651      H1664   1.111   1_655  S
C1665      C1666   1.402       .  A
C1665      C1670   1.407       .  A
C1665      H1675   1.085       .  S
C1666      C1671   1.475       .  S
C1666      C1667   1.408       .  A
C1667      C1668   1.395       .  A
C1667      C1672   1.509       .  S
C1668      C1669   1.405       .  A
C1668      H1673   1.085       .  S
C1669      C1670   1.418       .  A
C1670      C1674   1.507       .  S
C1671      C1676   1.409       .  A
C1671      C1680   1.399       .  A
C1672      H1688   1.110       .  S
C1672      H1689   1.109       .  S
C1672      H1690   1.111       .  S
C1674      H1685   1.111       .  S
C1674      H1686   1.110       .  S
C1674      H1687   1.104       .  S
C1676      C1677   1.402       .  A
C1676      C1681   1.507       .  S
C1677      C1678   1.406       .  A
C1677      H1682   1.084       .  S
C1678      C1679   1.417       .  A
C1679      C1680   1.400       .  A
C1679      C1683   1.509       .  S
C1680      H1684   1.084       .  S
C1681      H1691   1.111       .  S
C1681      H1692   1.110       .  S
C1681      H1693   1.110       .  S
C1683      H1694   1.110       .  S
C1683      H1695   1.107       .  S
C1683      H1696   1.110       .  S
C1697      C1698   1.401       .  A
C1697      C1702   1.400       .  A
C1697      H1707   1.085       .  S
C1698      C1703   1.482       .  S
C1698      C1699   1.412       .  A
C1699      C1700   1.406       .  A
C1699      C1704   1.506       .  S
C1700      C1701   1.405       .  A
C1700      H1705   1.084       .  S
C1701      C1702   1.415       .  A
C1702      C1706   1.509       .  S
C1703      C1708   1.413       .  A
C1703      C1712   1.400       .  A
C1704      H1720   1.109       .  S
C1704      H1721   1.110       .  S
C1704      H1722   1.111       .  S
C1706      H1717   1.111       .  S
C1706      H1718   1.108       .  S
C1706      H1719   1.111       .  S
C1708      C1709   1.406       .  A
C1708      C1713   1.506       .  S
C1709      C1710   1.403       .  A
C1709      H1714   1.085       .  S
C1710      C1711   1.415       .  A
C1711      C1712   1.399       .  A
C1711      C1715   1.508       .  S
C1712      H1716   1.084       .  S
C1713      H1723   1.111       .  S
C1713      H1724   1.109       .  S
C1713      H1725   1.110       .  S
C1715      H1726   1.108       .  S
C1715      H1727   1.111       .  S
C1715      H1728   1.111       .  S
C1729      C1730   1.401       .  A
C1729      C1734   1.401   1_455  A
C1729      H1739   1.084       .  S
C1730      C1735   1.486       .  S
C1730      C1731   1.414   1_455  A
C1731      C1732   1.409       .  A
C1731      C1736   1.505       .  S
C1732      C1733   1.402       .  A
C1732      H1737   1.084       .  S
C1733      C1734   1.414       .  A
C1734      C1738   1.509   1_655  S
C1735      C1740   1.414       .  A
C1735      C1744   1.402       .  A
C1736      H1752   1.110       .  S
C1736      H1753   1.110       .  S
C1736      H1754   1.111       .  S
C1738      H1749   1.111       .  S
C1738      H1750   1.109   1_455  S
C1738      H1751   1.110       .  S
C1740      C1741   1.407       .  A
C1740      C1745   1.506       .  S
C1741      C1742   1.402       .  A
C1741      H1746   1.085       .  S
C1742      C1743   1.414       .  A
C1743      C1744   1.402       .  A
C1743      C1747   1.508   1_455  S
C1744      H1748   1.085   1_455  S
C1745      H1755   1.111       .  S
C1745      H1756   1.109       .  S
C1745      H1757   1.110       .  S
C1747      H1758   1.110       .  S
C1747      H1759   1.108   1_655  S
C1747      H1760   1.110       .  S
C1761      C1762   1.401       .  A
C1761      C1766   1.404       .  A
C1761      H1771   1.085       .  S
C1762      C1767   1.483       .  S
C1762      C1763   1.410       .  A
C1763      C1764   1.405       .  A
C1763      C1768   1.506       .  S
C1764      C1765   1.405       .  A
C1764      H1769   1.085   1_455  S
C1765      C1766   1.418       .  A
C1766      C1770   1.508       .  S
C1767      C1772   1.410       .  A
C1767      C1776   1.402       .  A
C1768      H1784   1.110       .  S
C1768      H1785   1.110       .  S
C1768      H1786   1.111       .  S
C1770      H1781   1.111       .  S
C1770      H1782   1.110       .  S
C1770      H1783   1.104       .  S
C1772      C1773   1.399       .  A
C1772      C1777   1.510       .  S
C1773      C1774   1.407       .  A
C1773      H1778   1.084       .  S
C1774      C1775   1.420       .  A
C1775      C1776   1.411       .  A
C1775      C1779   1.507       .  S
C1776      H1780   1.084       .  S
C1777      H1787   1.111       .  S
C1777      H1788   1.110       .  S
C1777      H1789   1.110       .  S
C1779      H1790   1.109       .  S
C1779      H1791   1.111       .  S
C1779      H1792   1.111       .  S
C1793      C1794   1.403       .  A
C1793      C1798   1.408       .  A
C1793      H1803   1.084       .  S
C1794      C1799   1.485       .  S
C1794      C1795   1.410       .  A
C1795      C1796   1.401       .  A
C1795      C1800   1.508       .  S
C1796      C1797   1.406       .  A
C1796      H1801   1.084       .  S
C1797      C1798   1.419       .  A
C1798      C1802   1.508       .  S
C1799      C1804   1.407       .  A
C1799      C1808   1.403       .  A
C1800      H1816   1.110       .  S
C1800      H1817   1.111       .  S
C1800      H1818   1.111       .  S
C1802      H1813   1.110       .  S
C1802      H1814   1.110       .  S
C1802      H1815   1.106       .  S
C1804      C1805   1.400   1_545  A
C1804      C1809   1.508       .  S
C1805      C1806   1.412       .  A
C1805      H1810   1.083       .  S
C1806      C1807   1.421   1_565  A
C1807      C1808   1.410       .  A
C1807      C1811   1.507   1_545  S
C1808      H1812   1.084       .  S
C1809      H1819   1.111       .  S
C1809      H1820   1.110       .  S
C1809      H1821   1.111       .  S
C1811      H1822   1.111   1_565  S
C1811      H1823   1.110       .  S
C1811      H1824   1.110       .  S
C1825      C1826   1.402       .  A
C1825      C1830   1.402       .  A
C1825      H1835   1.085       .  S
C1826      C1831   1.486       .  S
C1826      C1827   1.412       .  A
C1827      C1828   1.406       .  A
C1827      C1832   1.506       .  S
C1828      C1829   1.404       .  A
C1828      H1833   1.084   1_455  S
C1829      C1830   1.418       .  A
C1830      C1834   1.510       .  S
C1831      C1836   1.411       .  A
C1831      C1840   1.400       .  A
C1832      H1848   1.109       .  S
C1832      H1849   1.110       .  S
C1832      H1850   1.111       .  S
C1834      H1845   1.110       .  S
C1834      H1846   1.111       .  S
C1834      H1847   1.104       .  S
C1836      C1837   1.407       .  A
C1836      C1841   1.506       .  S
C1837      C1838   1.407       .  A
C1837      H1842   1.084       .  S
C1838      C1839   1.422       .  A
C1839      C1840   1.403       .  A
C1839      C1843   1.509       .  S
C1840      H1844   1.085       .  S
C1841      H1851   1.111       .  S
C1841      H1852   1.109       .  S
C1841      H1853   1.110       .  S
C1843      H1854   1.109       .  S
C1843      H1855   1.110       .  S
C1843      H1856   1.111       .  S
C1857      C1858   1.401       .  A
C1857      C1862   1.402       .  A
C1857      H1867   1.084       .  S
C1858      C1863   1.484       .  S
C1858      C1859   1.411       .  A
C1859      C1860   1.404       .  A
C1859      C1864   1.507       .  S
C1860      C1861   1.408       .  A
C1860      H1865   1.084       .  S
C1861      C1862   1.420       .  A
C1862      C1866   1.509       .  S
C1863      C1868   1.411       .  A
C1863      C1872   1.401       .  A
C1864      H1880   1.109       .  S
C1864      H1881   1.110       .  S
C1864      H1882   1.111       .  S
C1866      H1877   1.111       .  S
C1866      H1878   1.109       .  S
C1866      H1879   1.111       .  S
C1868      C1869   1.405   1_545  A
C1868      C1873   1.507       .  S
C1869      C1870   1.407       .  A
C1869      H1874   1.084       .  S
C1870      C1871   1.420   1_565  A
C1871      C1872   1.401       .  A
C1871      C1875   1.511       .  S
C1872      H1876   1.084       .  S
C1873      H1883   1.111   1_545  S
C1873      H1884   1.109       .  S
C1873      H1885   1.110       .  S
C1875      H1886   1.111       .  S
C1875      H1887   1.102   1_545  S
C1875      H1888   1.110       .  S
C1889      C1890   1.400       .  A
C1889      C1894   1.404       .  A
C1889      H1899   1.083       .  S
C1890      C1895   1.476       .  S
C1890      C1891   1.407       .  A
C1891      C1892   1.399       .  A
C1891      C1896   1.507       .  S
C1892      C1893   1.408       .  A
C1892      H1897   1.083       .  S
C1893      C1894   1.419       .  A
C1894      C1898   1.509       .  S
C1895      C1900   1.407       .  A
C1895      C1904   1.399       .  A
C1896      H1912   1.110       .  S
C1896      H1913   1.110       .  S
C1896      H1914   1.111       .  S
C1898      H1909   1.111       .  S
C1898      H1910   1.111       .  S
C1898      H1911   1.110       .  S
C1900      C1901   1.401       .  A
C1900      C1905   1.507       .  S
C1901      C1902   1.407       .  A
C1901      H1906   1.084       .  S
C1902      C1903   1.421       .  A
C1903      C1904   1.403       .  A
C1903      C1907   1.510       .  S
C1904      H1908   1.084       .  S
C1905      H1915   1.111       .  S
C1905      H1916   1.110       .  S
C1905      H1917   1.110       .  S
C1907      H1918   1.111       .  S
C1907      H1919   1.111       .  S
C1907      H1920   1.110       .  S
C1921      C1922   1.400       .  A
C1921      C1926   1.399       .  A
C1921      H1931   1.085       .  S
C1922      C1927   1.477   1_655  S
C1922      C1923   1.411       .  A
C1923      C1924   1.404       .  A
C1923      C1928   1.506   1_655  S
C1924      C1925   1.403       .  A
C1924      H1929   1.084       .  S
C1925      C1926   1.416       .  A
C1926      C1930   1.508       .  S
C1927      C1932   1.411       .  A
C1927      C1936   1.400       .  A
C1928      H1944   1.109       .  S
C1928      H1945   1.110       .  S
C1928      H1946   1.111       .  S
C1930      H1941   1.111       .  S
C1930      H1942   1.108       .  S
C1930      H1943   1.109       .  S
C1932      C1933   1.405       .  A
C1932      C1937   1.505   1_455  S
C1933      C1934   1.403       .  A
C1933      H1938   1.084       .  S
C1934      C1935   1.414       .  A
C1935      C1936   1.396       .  A
C1935      C1939   1.505       .  S
C1936      H1940   1.085       .  S
C1937      H1947   1.111       .  S
C1937      H1948   1.109       .  S
C1937      H1949   1.110       .  S
C1939      H1950   1.110       .  S
C1939      H1951   1.104       .  S
C1939      H1952   1.111       .  S
C1953      C1954   1.402       .  A
C1953      C1958   1.397       .  A
C1953      H1963   1.085       .  S
C1954      C1959   1.475       .  S
C1954      C1955   1.411       .  A
C1955      C1956   1.401       .  A
C1955      C1960   1.507       .  S
C1956      C1957   1.401       .  A
C1956      H1961   1.084       .  S
C1957      C1958   1.411       .  A
C1958      C1962   1.509       .  S
C1959      C1964   1.412       .  A
C1959      C1968   1.401       .  A
C1960      H1976   1.109       .  S
C1960      H1977   1.110       .  S
C1960      H1978   1.111       .  S
C1962      H1973   1.110       .  S
C1962      H1974   1.110       .  S
C1962      H1975   1.107       .  S
C1964      C1965   1.403       .  A
C1964      C1969   1.506       .  S
C1965      C1966   1.400       .  A
C1965      H1970   1.084       .  S
C1966      C1967   1.409       .  A
C1967      C1968   1.397       .  A
C1967      C1971   1.508       .  S
C1968      H1972   1.084       .  S
C1969      H1979   1.111       .  S
C1969      H1980   1.109       .  S
C1969      H1981   1.111       .  S
C1971      H1982   1.110       .  S
C1971      H1983   1.110       .  S
C1971      H1984   1.111       .  S
C1985      C1986   1.401       .  A
C1985      C1990   1.405       .  A
C1985      H1995   1.084       .  S
C1986      C1991   1.488       .  S
C1986      C1987   1.412       .  A
C1987      C1988   1.409       .  A
C1987      C1992   1.505       .  S
C1988      C1989   1.406       .  A
C1988      H1993   1.084       .  S
C1989      C1990   1.417       .  A
C1990      C1994   1.509       .  S
C1991      C1996   1.410       .  A
C1991      C2000   1.404       .  A
C1992      H2008   1.110       .  S
C1992      H2009   1.110       .  S
C1992      H2010   1.111       .  S
C1994      H2005   1.109       .  S
C1994      H2006   1.111       .  S
C1994      H2007   1.111       .  S
C1996      C1997   1.401       .  A
C1996      C2001   1.509       .  S
C1997      C1998   1.407       .  A
C1997      H2002   1.084       .  S
C1998      C1999   1.419       .  A
C1999      C2000   1.412       .  A
C1999      C2003   1.507       .  S
C2000      H2004   1.084       .  S
C2001      H2011   1.111       .  S
C2001      H2012   1.110       .  S
C2001      H2013   1.110       .  S
C2003      H2014   1.110       .  S
C2003      H2015   1.105       .  S
C2003      H2016   1.110       .  S
C2017      C2018   1.404       .  A
C2017      C2022   1.414       .  A
C2017      H2027   1.084       .  S
C2018      C2023   1.489       .  S
C2018      C2019   1.410       .  A
C2019      C2020   1.401       .  A
C2019      C2024   1.509       .  S
C2020      C2021   1.407       .  A
C2020      H2025   1.084       .  S
C2021      C2022   1.420       .  A
C2022      C2026   1.506       .  S
C2023      C2028   1.412       .  A
C2023      C2032   1.403       .  A
C2024      H2040   1.110       .  S
C2024      H2041   1.109       .  S
C2024      H2042   1.111       .  S
C2026      H2037   1.110       .  S
C2026      H2038   1.111       .  S
C2026      H2039   1.110       .  S
C2028      C2029   1.406       .  A
C2028      C2033   1.507       .  S
C2029      C2030   1.405       .  A
C2029      H2034   1.084       .  S
C2030      C2031   1.418       .  A
C2031      C2032   1.407       .  A
C2031      C2035   1.509       .  S
C2032      H2036   1.084       .  S
C2033      H2043   1.111       .  S
C2033      H2044   1.110       .  S
C2033      H2045   1.109       .  S
C2035      H2046   1.110       .  S
C2035      H2047   1.105       .  S
C2035      H2048   1.110       .  S
C2049      C2050   1.398       .  A
C2049      C2054   1.404       .  A
C2049      H2059   1.084       .  S
C2050      C2055   1.474       .  S
C2050      C2051   1.407       .  A
C2051      C2052   1.399       .  A
C2051      C2056   1.507       .  S
C2052      C2053   1.408       .  A
C2052      H2057   1.084       .  S
C2053      C2054   1.422       .  A
C2054      C2058   1.508       .  S
C2055      C2060   1.410       .  A
C2055      C2064   1.401       .  A
C2056      H2072   1.110       .  S
C2056      H2073   1.110       .  S
C2056      H2074   1.111       .  S
C2058      H2069   1.111       .  S
C2058      H2070   1.110       .  S
C2058      H2071   1.110       .  S
C2060      C2061   1.402       .  A
C2060      C2065   1.506       .  S
C2061      C2062   1.402       .  A
C2061      H2066   1.084       .  S
C2062      C2063   1.414       .  A
C2063      C2064   1.401       .  A
C2063      C2067   1.509       .  S
C2064      H2068   1.084       .  S
C2065      H2075   1.111       .  S
C2065      H2076   1.110       .  S
C2065      H2077   1.110       .  S
C2067      H2078   1.110       .  S
C2067      H2079   1.108       .  S
C2067      H2080   1.110       .  S
C2081      C2082   1.395       .  A
C2081      C2086   1.402       .  A
C2081      H2091   1.085       .  S
C2082      C2087   1.493       .  S
C2082      C2083   1.413       .  A
C2083      C2084   1.416       .  A
C2083      C2088   1.504       .  S
C2084      C2085   1.410       .  A
C2084      H2089   1.083       .  S
C2085      C2086   1.429       .  A
C2086      C2090   1.512       .  S
C2087      C2092   1.411       .  A
C2087      C2096   1.402       .  A
C2088      H2104   1.110       .  S
C2088      H2105   1.109       .  S
C2088      H2106   1.111       .  S
C2090      H2101   1.110       .  S
C2090      H2102   1.111       .  S
C2090      H2103   1.109       .  S
C2092      C2093   1.407       .  A
C2092      C2097   1.507       .  S
C2093      C2094   1.409       .  A
C2093      H2098   1.083       .  S
C2094      C2095   1.425       .  A
C2095      C2096   1.410       .  A
C2095      C2099   1.509       .  S
C2096      H2100   1.084       .  S
C2097      H2107   1.111       .  S
C2097      H2108   1.110       .  S
C2097      H2109   1.109       .  S
C2099      H2110   1.111       .  S
C2099      H2111   1.101       .  S
C2099      H2112   1.110       .  S
C2113      C2114   1.402       .  A
C2113      C2118   1.405       .  A
C2113      H2123   1.085       .  S
C2114      C2119   1.492       .  S
C2114      C2115   1.415       .  A
C2115      C2116   1.408       .  A
C2115      C2120   1.507       .  S
C2116      C2117   1.404       .  A
C2116      H2121   1.085       .  S
C2117      C2118   1.418       .  A
C2118      C2122   1.508       .  S
C2119      C2124   1.413       .  A
C2119      C2128   1.398       .  A
C2120      H2136   1.108       .  S
C2120      H2137   1.110       .  S
C2120      H2138   1.111       .  S
C2122      H2133   1.110       .  S
C2122      H2134   1.110       .  S
C2122      H2135   1.103       .  S
C2124      C2125   1.411       .  A
C2124      C2129   1.506       .  S
C2125      C2126   1.410       .  A
C2125      H2130   1.083       .  S
C2126      C2127   1.429       .  A
C2127      C2128   1.403       .  A
C2127      C2131   1.511       .  S
C2128      H2132   1.084       .  S
C2129      H2139   1.111       .  S
C2129      H2140   1.109       .  S
C2129      H2141   1.110       .  S
C2131      H2142   1.111       .  S
C2131      H2143   1.109       .  S
C2131      H2144   1.110       .  S
C2145      C2146   1.398       .  A
C2145      C2150   1.402       .  A
C2145      H2155   1.085       .  S
C2146      C2151   1.486       .  S
C2146      C2147   1.411       .  A
C2147      C2148   1.411       .  A
C2147      C2152   1.505       .  S
C2148      C2149   1.409       .  A
C2148      H2153   1.083       .  S
C2149      C2150   1.423       .  A
C2150      C2154   1.510       .  S
C2151      C2156   1.412       .  A
C2151      C2160   1.404       .  A
C2152      H2168   1.110       .  S
C2152      H2169   1.109       .  S
C2152      H2170   1.111       .  S
C2154      H2165   1.109       .  S
C2154      H2166   1.111       .  S
C2154      H2167   1.110       .  S
C2156      C2157   1.403       .  A
C2156      C2161   1.508       .  S
C2157      C2158   1.403       .  A
C2157      H2162   1.085       .  S
C2158      C2159   1.416       .  A
C2159      C2160   1.408       .  A
C2159      C2163   1.508       .  S
C2160      H2164   1.084       .  S
C2161      H2171   1.111       .  S
C2161      H2172   1.110       .  S
C2161      H2173   1.109       .  S
C2163      H2174   1.110       .  S
C2163      H2175   1.107       .  S
C2163      H2176   1.110       .  S
C2177      C2178   1.403       .  A
C2177      C2182   1.404       .  A
C2177      H2187   1.085       .  S
C2178      C2183   1.489       .  S
C2178      C2179   1.414       .  A
C2179      C2180   1.406       .  A
C2179      C2184   1.506       .  S
C2180      C2181   1.401       .  A
C2180      H2185   1.085       .  S
C2181      C2182   1.415       .  A
C2182      C2186   1.507       .  S
C2183      C2188   1.410       .  A
C2183      C2192   1.402       .  A
C2184      H2200   1.110       .  S
C2184      H2201   1.111       .  S
C2184      H2202   1.111       .  S
C2186      H2197   1.110       .  S
C2186      H2198   1.110       .  S
C2186      H2199   1.109       .  S
C2188      C2189   1.402       .  A
C2188      C2193   1.509       .  S
C2189      C2190   1.410       .  A
C2189      H2194   1.083       .  S
C2190      C2191   1.423       .  A
C2191      C2192   1.411       .  A
C2191      C2195   1.508       .  S
C2192      H2196   1.084       .  S
C2193      H2203   1.111       .  S
C2193      H2204   1.109       .  S
C2193      H2205   1.111       .  S
C2195      H2206   1.111       .  S
C2195      H2207   1.110       .  S
C2195      H2208   1.110       .  S
C2209      C2210   1.401       .  A
C2209      C2214   1.404       .  A
C2209      H2219   1.085       .  S
C2210      C2215   1.480       .  S
C2210      C2211   1.409       .  A
C2211      C2212   1.403       .  A
C2211      C2216   1.507       .  S
C2212      C2213   1.405       .  A
C2212      H2217   1.085       .  S
C2213      C2214   1.418       .  A
C2214      C2218   1.508       .  S
C2215      C2220   1.410       .  A
C2215      C2224   1.400       .  A
C2216      H2232   1.110       .  S
C2216      H2233   1.110       .  S
C2216      H2234   1.111       .  S
C2218      H2229   1.110       .  S
C2218      H2230   1.111       .  S
C2218      H2231   1.106       .  S
C2220      C2221   1.404       .  A
C2220      C2225   1.506       .  S
C2221      C2222   1.405       .  A
C2221      H2226   1.084       .  S
C2222      C2223   1.419       .  A
C2223      C2224   1.402       .  A
C2223      C2227   1.510       .  S
C2224      H2228   1.084       .  S
C2225      H2235   1.111       .  S
C2225      H2236   1.110       .  S
C2225      H2237   1.110       .  S
C2227      H2238   1.111       .  S
C2227      H2239   1.105       .  S
C2227      H2240   1.110       .  S
C2241      C2242   1.400       .  A
C2241      C2246   1.402       .  A
C2241      H2251   1.084       .  S
C2242      C2247   1.488       .  S
C2242      C2243   1.413       .  A
C2243      C2244   1.412       .  A
C2243      C2248   1.505       .  S
C2244      C2245   1.405       .  A
C2244      H2249   1.084       .  S
C2245      C2246   1.416       .  A
C2246      C2250   1.509       .  S
C2247      C2252   1.410       .  A
C2247      C2256   1.401       .  A
C2248      H2264   1.110       .  S
C2248      H2265   1.109       .  S
C2248      H2266   1.111       .  S
C2250      H2261   1.109       .  S
C2250      H2262   1.111       .  S
C2250      H2263   1.111       .  S
C2252      C2253   1.404       .  A
C2252      C2257   1.508       .  S
C2253      C2254   1.407       .  A
C2253      H2258   1.080       .  S
C2254      C2255   1.425       .  A
C2255      C2256   1.410       .  A
C2255      C2259   1.510       .  S
C2256      H2260   1.084       .  S
C2257      H2267   1.111       .  S
C2257      H2268   1.110       .  S
C2257      H2269   1.109       .  S
C2259      H2270   1.111       .  S
C2259      H2271   1.101       .  S
C2259      H2272   1.111       .  S
C2273      C2274   1.402       .  A
C2273      C2278   1.405       .  A
C2273      H2283   1.085       .  S
C2274      C2279   1.479       .  S
C2274      C2275   1.409       .  A
C2275      C2276   1.400       .  A
C2275      C2280   1.508       .  S
C2276      C2277   1.406       .  A
C2276      H2281   1.085       .  S
C2277      C2278   1.418       .  A
C2278      C2282   1.508       .  S
C2279      C2284   1.409       .  A
C2279      C2288   1.403       .  A
C2280      H2296   1.110       .  S
C2280      H2297   1.110       .  S
C2280      H2298   1.111       .  S
C2282      H2293   1.110       .  S
C2282      H2294   1.111       .  S
C2282      H2295   1.106       .  S
C2284      C2285   1.399       .  A
C2284      C2289   1.507       .  S
C2285      C2286   1.405       .  A
C2285      H2290   1.085       .  S
C2286      C2287   1.414       .  A
C2287      C2288   1.405       .  A
C2287      C2291   1.507       .  S
C2288      H2292   1.084       .  S
C2289      H2299   1.111       .  S
C2289      H2300   1.110       .  S
C2289      H2301   1.111       .  S
C2291      H2302   1.110       .  S
C2291      H2303   1.107       .  S
C2291      H2304   1.110       .  S
C2305      C2306   1.401       .  A
C2305      C2310   1.411       .  A
C2305      H2315   1.084       .  S
C2306      C2311   1.483       .  S
C2306      C2307   1.408       .  A
C2307      C2308   1.399       .  A
C2307      C2312   1.509       .  S
C2308      C2309   1.410       .  A
C2308      H2313   1.084       .  S
C2309      C2310   1.423       .  A
C2310      C2314   1.506       .  S
C2311      C2316   1.412       .  A
C2311      C2320   1.400       .  A
C2312      H2328   1.110       .  S
C2312      H2329   1.110       .  S
C2312      H2330   1.111       .  S
C2314      H2325   1.111       .  S
C2314      H2326   1.111       .  S
C2314      H2327   1.110       .  S
C2316      C2317   1.407       .  A
C2316      C2321   1.505       .  S
C2317      C2318   1.403       .  A
C2317      H2322   1.084       .  S
C2318      C2319   1.414       .  A
C2319      C2320   1.402       .  A
C2319      C2323   1.508       .  S
C2320      H2324   1.084       .  S
C2321      H2331   1.111       .  S
C2321      H2332   1.110       .  S
C2321      H2333   1.110       .  S
C2323      H2334   1.111       .  S
C2323      H2335   1.109       .  S
C2323      H2336   1.109       .  S
C2337      C2338   1.401       .  A
C2337      C2342   1.401       .  A
C2337      H2347   1.085       .  S
C2338      C2343   1.485       .  S
C2338      C2339   1.411       .  A
C2339      C2340   1.407       .  A
C2339      C2344   1.506       .  S
C2340      C2341   1.405       .  A
C2340      H2345   1.084       .  S
C2341      C2342   1.418       .  A
C2342      C2346   1.509       .  S
C2343      C2348   1.410       .  A
C2343      C2352   1.401       .  A
C2344      H2360   1.110       .  S
C2344      H2361   1.110       .  S
C2344      H2362   1.111       .  S
C2346      H2357   1.110       .  S
C2346      H2358   1.111       .  S
C2346      H2359   1.103       .  S
C2348      C2349   1.404       .  A
C2348      C2353   1.507       .  S
C2349      C2350   1.408       .  A
C2349      H2354   1.084       .  S
C2350      C2351   1.421       .  A
C2351      C2352   1.406       .  A
C2351      C2355   1.508       .  S
C2352      H2356   1.084       .  S
C2353      H2363   1.111       .  S
C2353      H2364   1.109       .  S
C2353      H2365   1.110       .  S
C2355      H2366   1.111       .  S
C2355      H2367   1.110       .  S
C2355      H2368   1.109       .  S
C2369      C2370   1.401       .  A
C2369      C2374   1.403       .  A
C2369      H2379   1.085       .  S
C2370      C2375   1.480       .  S
C2370      C2371   1.411       .  A
C2371      C2372   1.401       .  A
C2371      C2376   1.507       .  S
C2372      C2373   1.403       .  A
C2372      H2377   1.085       .  S
C2373      C2374   1.419       .  A
C2374      C2378   1.510       .  S
C2375      C2380   1.409       .  A
C2375      C2384   1.400       .  A
C2376      H2392   1.109       .  S
C2376      H2393   1.110       .  S
C2376      H2394   1.111       .  S
C2378      H2389   1.110       .  S
C2378      H2390   1.111       .  S
C2378      H2391   1.105       .  S
C2380      C2381   1.403       .  A
C2380      C2385   1.506       .  S
C2381      C2382   1.406       .  A
C2381      H2386   1.084       .  S
C2382      C2383   1.419       .  A
C2383      C2384   1.402       .  A
C2383      C2387   1.509       .  S
C2384      H2388   1.084       .  S
C2385      H2395   1.111       .  S
C2385      H2396   1.110       .  S
C2385      H2397   1.110       .  S
C2387      H2398   1.111       .  S
C2387      H2399   1.110       .  S
C2387      H2400   1.110       .  S
C2401      C2402   1.399       .  A
C2401      C2406   1.408       .  A
C2401      H2411   1.084       .  S
C2402      C2407   1.478       .  S
C2402      C2403   1.408       .  A
C2403      C2404   1.398       .  A
C2403      C2408   1.509       .  S
C2404      C2405   1.409       .  A
C2404      H2409   1.084       .  S
C2405      C2406   1.425       .  A
C2406      C2410   1.508       .  S
C2407      C2412   1.410       .  A
C2407      C2416   1.399       .  A
C2408      H2424   1.110       .  S
C2408      H2425   1.110       .  S
C2408      H2426   1.111       .  S
C2410      H2421   1.111       .  S
C2410      H2422   1.110       .  S
C2410      H2423   1.110       .  S
C2412      C2413   1.406       .  A
C2412      C2417   1.505       .  S
C2413      C2414   1.404       .  A
C2413      H2418   1.084       .  S
C2414      C2415   1.417       .  A
C2415      C2416   1.399       .  A
C2415      C2419   1.509       .  S
C2416      H2420   1.085       .  S
C2417      H2427   1.111       .  S
C2417      H2428   1.110       .  S
C2417      H2429   1.110       .  S
C2419      H2430   1.110       .  S
C2419      H2431   1.108       .  S
C2419      H2432   1.110       .  S
C2433      C2434   1.400       .  A
C2433      C2438   1.403       .  A
C2433      H2443   1.084       .  S
C2434      C2439   1.487       .  S
C2434      C2435   1.410       .  A
C2435      C2436   1.409       .  A
C2435      C2440   1.505       .  S
C2436      C2437   1.408       .  A
C2436      H2441   1.083       .  S
C2437      C2438   1.420       .  A
C2438      C2442   1.510       .  S
C2439      C2444   1.411       .  A
C2439      C2448   1.402       .  A
C2440      H2456   1.110       .  S
C2440      H2457   1.110       .  S
C2440      H2458   1.111       .  S
C2442      H2453   1.111       .  S
C2442      H2454   1.111       .  S
C2442      H2455   1.109       .  S
C2444      C2445   1.405       .  A
C2444      C2449   1.506       .  S
C2445      C2446   1.405       .  A
C2445      H2450   1.084       .  S
C2446      C2447   1.420       .  A
C2447      C2448   1.407       .  A
C2447      C2451   1.508       .  S
C2448      H2452   1.085       .  S
C2449      H2459   1.111       .  S
C2449      H2460   1.110       .  S
C2449      H2461   1.110       .  S
C2451      H2462   1.111       .  S
C2451      H2463   1.104       .  S
C2451      H2464   1.110       .  S
C2465      C2466   1.404       .  A
C2465      C2470   1.407       .  A
C2465      H2475   1.084       .  S
C2466      C2471   1.486       .  S
C2466      C2467   1.411       .  A
C2467      C2468   1.402       .  A
C2467      C2472   1.508       .  S
C2468      C2469   1.405       .  A
C2468      H2473   1.084       .  S
C2469      C2470   1.417       .  A
C2470      C2474   1.507       .  S
C2471      C2476   1.411       .  A
C2471      C2480   1.404       .  A
C2472      H2488   1.109       .  S
C2472      H2489   1.111       .  S
C2472      H2490   1.111       .  S
C2474      H2485   1.110       .  S
C2474      H2486   1.110       .  S
C2474      H2487   1.106       .  S
C2476      C2477   1.402       .  A
C2476      C2481   1.508       .  S
C2477      C2478   1.405       .  A
C2477      H2482   1.081       .  S
C2478      C2479   1.418       .  A
C2479      C2480   1.406       .  A
C2479      C2483   1.508       .  S
C2480      H2484   1.084       .  S
C2481      H2491   1.111       .  S
C2481      H2492   1.109       .  S
C2481      H2493   1.110       .  S
C2483      H2494   1.110       .  S
C2483      H2495   1.107       .  S
C2483      H2496   1.110       .  S
C2497      C2498   1.399       .  A
C2497      C2502   1.405       .  A
C2497      H2507   1.084       .  S
C2498      C2503   1.488       .  S
C2498      C2499   1.411       .  A
C2499      C2500   1.410       .  A
C2499      C2504   1.506       .  S
C2500      C2501   1.410       .  A
C2500      H2505   1.083       .  S
C2501      C2502   1.424       .  A
C2502      C2506   1.510       .  S
C2503      C2508   1.411       .  A
C2503      C2512   1.405       .  A
C2504      H2520   1.110       .  S
C2504      H2521   1.108       .  S
C2504      H2522   1.111       .  S
C2506      H2517   1.109       .  S
C2506      H2518   1.111       .  S
C2506      H2519   1.111       .  S
C2508      C2509   1.402       .  A
C2508      C2513   1.509       .  S
C2509      C2510   1.406       .  A
C2509      H2514   1.085       .  S
C2510      C2511   1.418       .  A
C2511      C2512   1.411       .  A
C2511      C2515   1.507       .  S
C2512      H2516   1.085       .  S
C2513      H2523   1.111       .  S
C2513      H2524   1.110       .  S
C2513      H2525   1.108       .  S
C2515      H2526   1.110       .  S
C2515      H2527   1.105       .  S
C2515      H2528   1.110       .  S
C2529      C2530   1.399       .  A
C2529      C2534   1.407       .  A
C2529      H2539   1.084       .  S
C2530      C2535   1.482       .  S
C2530      C2531   1.408       .  A
C2531      C2532   1.403       .  A
C2531      C2536   1.507       .  S
C2532      C2533   1.410       .  A
C2532      H2537   1.084       .  S
C2533      C2534   1.424       .  A
C2534      C2538   1.508       .  S
C2535      C2540   1.409       .  A
C2535      C2544   1.398       .  A
C2536      H2552   1.110       .  S
C2536      H2553   1.110       .  S
C2536      H2554   1.111       .  S
C2538      H2549   1.110       .  S
C2538      H2550   1.109       .  S
C2538      H2551   1.111       .  S
C2540      C2541   1.409       .  A
C2540      C2545   1.505       .  S
C2541      C2542   1.409       .  A
C2541      H2546   1.084       .  S
C2542      C2543   1.421       .  A
C2543      C2544   1.400       .  A
C2543      C2547   1.510       .  S
C2544      H2548   1.085       .  S
C2545      H2555   1.111       .  S
C2545      H2556   1.110       .  S
C2545      H2557   1.110       .  S
C2547      H2558   1.111       .  S
C2547      H2559   1.110       .  S
C2547      H2560   1.110       .  S
C2561      C2562   1.399       .  A
C2561      C2566   1.408       .  A
C2561      H2571   1.084       .  S
C2562      C2567   1.481       .  S
C2562      C2563   1.408       .  A
C2563      C2564   1.401       .  A
C2563      C2568   1.508       .  S
C2564      C2565   1.410       .  A
C2564      H2569   1.083       .  S
C2565      C2566   1.423       .  A
C2566      C2570   1.508       .  S
C2567      C2572   1.411       .  A
C2567      C2576   1.400       .  A
C2568      H2584   1.110       .  S
C2568      H2585   1.110       .  S
C2568      H2586   1.111       .  S
C2570      H2581   1.110       .  S
C2570      H2582   1.111       .  S
C2570      H2583   1.111       .  S
C2572      C2573   1.403       .  A
C2572      C2577   1.507       .  S
C2573      C2574   1.404       .  A
C2573      H2578   1.085       .  S
C2574      C2575   1.417       .  A
C2575      C2576   1.404       .  A
C2575      C2579   1.508       .  S
C2576      H2580   1.085       .  S
C2577      H2587   1.111       .  S
C2577      H2588   1.110       .  S
C2577      H2589   1.110       .  S
C2579      H2590   1.111       .  S
C2579      H2591   1.108       .  S
C2579      H2592   1.110       .  S
C2593      C2594   1.399       .  A
C2593      C2598   1.403       .  A
C2593      H2603   1.084       .  S
C2594      C2599   1.477       .  S
C2594      C2595   1.409       .  A
C2595      C2596   1.402       .  A
C2595      C2600   1.506       .  S
C2596      C2597   1.406       .  A
C2596      H2601   1.084       .  S
C2597      C2598   1.420       .  A
C2598      C2602   1.509       .  S
C2599      C2604   1.408       .  A
C2599      C2608   1.399       .  A
C2600      H2616   1.110       .  S
C2600      H2617   1.110       .  S
C2600      H2618   1.111       .  S
C2602      H2613   1.111       .  S
C2602      H2614   1.111       .  S
C2602      H2615   1.109       .  S
C2604      C2605   1.402       .  A
C2604      C2609   1.506       .  S
C2605      C2606   1.406       .  A
C2605      H2610   1.084       .  S
C2606      C2607   1.422       .  A
C2607      C2608   1.403       .  A
C2607      C2611   1.510       .  S
C2608      H2612   1.084       .  S
C2609      H2619   1.111       .  S
C2609      H2620   1.110       .  S
C2609      H2621   1.110       .  S
C2611      H2622   1.111       .  S
C2611      H2623   1.111       .  S
C2611      H2624   1.110       .  S
C2625      C2626   1.396       .  A
C2625      C2630   1.400       .  A
C2625      H2635   1.085       .  S
C2626      C2631   1.487       .  S
C2626      C2627   1.411       .  A
C2627      C2628   1.413       .  A
C2627      C2632   1.504       .  S
C2628      C2629   1.408       .  A
C2628      H2633   1.084       .  S
C2629      C2630   1.425       .  A
C2630      C2634   1.511       .  S
C2631      C2636   1.411       .  A
C2631      C2640   1.403       .  A
C2632      H2648   1.110       .  S
C2632      H2649   1.111       .  S
C2632      H2650   1.111       .  S
C2634      H2645   1.110       .  S
C2634      H2646   1.111       .  S
C2634      H2647   1.110       .  S
C2636      C2637   1.403       .  A
C2636      C2641   1.507       .  S
C2637      C2638   1.405       .  A
C2637      H2642   1.084       .  S
C2638      C2639   1.420       .  A
C2639      C2640   1.409       .  A
C2639      C2643   1.509       .  S
C2640      H2644   1.084       .  S
C2641      H2651   1.111       .  S
C2641      H2652   1.110       .  S
C2641      H2653   1.110       .  S
C2643      H2654   1.111       .  S
C2643      H2655   1.105       .  S
C2643      H2656   1.110       .  S
C2657      C2658   1.401       .  A
C2657      C2662   1.401       .  A
C2657      H2667   1.085       .  S
C2658      C2663   1.485       .  S
C2658      C2659   1.414       .  A
C2659      C2660   1.405       .  A
C2659      C2664   1.507       .  S
C2660      C2661   1.403       .  A
C2660      H2665   1.085       .  S
C2661      C2662   1.417       .  A
C2662      C2666   1.508       .  S
C2663      C2668   1.414       .  A
C2663      C2672   1.399       .  A
C2664      H2680   1.108       .  S
C2664      H2681   1.110       .  S
C2664      H2682   1.111       .  S
C2666      H2677   1.110       .  S
C2666      H2678   1.110       .  S
C2666      H2679   1.103       .  S
C2668      C2669   1.409       .  A
C2668      C2673   1.506       .  S
C2669      C2670   1.405       .  A
C2669      H2674   1.084       .  S
C2670      C2671   1.419       .  A
C2671      C2672   1.398       .  A
C2671      C2675   1.511       .  S
C2672      H2676   1.085       .  S
C2673      H2683   1.111       .  S
C2673      H2684   1.109       .  S
C2673      H2685   1.110       .  S
C2675      H2686   1.109       .  S
C2675      H2687   1.110       .  S
C2675      H2688   1.111       .  S
C2689      C2690   1.398       .  A
C2689      C2694   1.394       .  A
C2689      H2699   1.085       .  S
C2690      C2695   1.473       .  S
C2690      C2691   1.409       .  A
C2691      C2692   1.407       .  A
C2691      C2696   1.504       .  S
C2692      C2693   1.406       .  A
C2692      H2697   1.084       .  S
C2693      C2694   1.415       .  A
C2694      C2698   1.510       .  S
C2695      C2700   1.411       .  A
C2695      C2704   1.400       .  A
C2696      H2712   1.110       .  S
C2696      H2713   1.110       .  S
C2696      H2714   1.111       .  S
C2698      H2709   1.110       .  S
C2698      H2710   1.111       .  S
C2698      H2711   1.106       .  S
C2700      C2701   1.402       .  A
C2700      C2705   1.506       .  S
C2701      C2702   1.402       .  A
C2701      H2706   1.084       .  S
C2702      C2703   1.414       .  A
C2703      C2704   1.399       .  A
C2703      C2707   1.509       .  S
C2704      H2708   1.085       .  S
C2705      H2715   1.111       .  S
C2705      H2716   1.110       .  S
C2705      H2717   1.110       .  S
C2707      H2718   1.111       .  S
C2707      H2719   1.109       .  S
C2707      H2720   1.110       .  S
C2721      C2722   1.399       .  A
C2721      C2726   1.400       .  A
C2721      H2731   1.085       .  S
C2722      C2727   1.483       .  S
C2722      C2723   1.412       .  A
C2723      C2724   1.409       .  A
C2723      C2728   1.505       .  S
C2724      C2725   1.405       .  A
C2724      H2729   1.085       .  S
C2725      C2726   1.417       .  A
C2726      C2730   1.510       .  S
C2727      C2732   1.410       .  A
C2727      C2736   1.401       .  A
C2728      H2744   1.110       .  S
C2728      H2745   1.109       .  S
C2728      H2746   1.111       .  S
C2730      H2741   1.109       .  S
C2730      H2742   1.111       .  S
C2730      H2743   1.111       .  S
C2732      C2733   1.403       .  A
C2732      C2737   1.508       .  S
C2733      C2734   1.406       .  A
C2733      H2738   1.085       .  S
C2734      C2735   1.422       .  A
C2735      C2736   1.407       .  A
C2735      C2739   1.510       .  S
C2736      H2740   1.085       .  S
C2737      H2747   1.111       .  S
C2737      H2748   1.110       .  S
C2737      H2749   1.109       .  S
C2739      H2750   1.111       .  S
C2739      H2751   1.102       .  S
C2739      H2752   1.110       .  S
C2753      C2754   1.401       .  A
C2753      C2758   1.402       .  A
C2753      H2763   1.085       .  S
C2754      C2759   1.481   1_554  S
C2754      C2755   1.411       .  A
C2755      C2756   1.403       .  A
C2755      C2760   1.506       .  S
C2756      C2757   1.403       .  A
C2756      H2761   1.085       .  S
C2757      C2758   1.417       .  A
C2758      C2762   1.510       .  S
C2759      C2764   1.408       .  A
C2759      C2768   1.400       .  A
C2760      H2776   1.110   1_554  S
C2760      H2777   1.110   1_554  S
C2760      H2778   1.111       .  S
C2762      H2773   1.110       .  S
C2762      H2774   1.111       .  S
C2762      H2775   1.106       .  S
C2764      C2765   1.403       .  A
C2764      C2769   1.507       .  S
C2765      C2766   1.408       .  A
C2765      H2770   1.083       .  S
C2766      C2767   1.420       .  A
C2767      C2768   1.405       .  A
C2767      C2771   1.508       .  S
C2768      H2772   1.084       .  S
C2769      H2779   1.111       .  S
C2769      H2780   1.110       .  S
C2769      H2781   1.110       .  S
C2771      H2782   1.111       .  S
C2771      H2783   1.110       .  S
C2771      H2784   1.110       .  S
C2785      C2786   1.404       .  A
C2785      C2790   1.408       .  A
C2785      H2795   1.084       .  S
C2786      C2791   1.482       .  S
C2786      C2787   1.413       .  A
C2787      C2788   1.400       .  A
C2787      C2792   1.509       .  S
C2788      C2789   1.401       .  A
C2788      H2793   1.085       .  S
C2789      C2790   1.414       .  A
C2790      C2794   1.507       .  S
C2791      C2796   1.412       .  A
C2791      C2800   1.400       .  A
C2792      H2808   1.110       .  S
C2792      H2809   1.109       .  S
C2792      H2810   1.111       .  S
C2794      H2805   1.110       .  S
C2794      H2806   1.111       .  S
C2794      H2807   1.108       .  S
C2796      C2797   1.408       .  A
C2796      C2801   1.506       .  S
C2797      C2798   1.404       .  A
C2797      H2802   1.084       .  S
C2798      C2799   1.414       .  A
C2799      C2800   1.401       .  A
C2799      C2803   1.508       .  S
C2800      H2804   1.084       .  S
C2801      H2811   1.111       .  S
C2801      H2812   1.110       .  S
C2801      H2813   1.109       .  S
C2803      H2814   1.111       .  S
C2803      H2815   1.109       .  S
C2803      H2816   1.109       .  S
C2817      C2818   1.401       .  A
C2817      C2822   1.402       .  A
C2817      H2827   1.084       .  S
C2818      C2823   1.472       .  S
C2818      C2819   1.409       .  A
C2819      C2820   1.399       .  A
C2819      C2824   1.507       .  S
C2820      C2821   1.404       .  A
C2820      H2825   1.085       .  S
C2821      C2822   1.414       .  A
C2822      C2826   1.508       .  S
C2823      C2828   1.409       .  A
C2823      C2832   1.398       .  A
C2824      H2840   1.110       .  S
C2824      H2841   1.110       .  S
C2824      H2842   1.111       .  S
C2826      H2837   1.111       .  S
C2826      H2838   1.111       .  S
C2826      H2839   1.110       .  S
C2828      C2829   1.405       .  A
C2828      C2833   1.504       .  S
C2829      C2830   1.403       .  A
C2829      H2834   1.084       .  S
C2830      C2831   1.413       .  A
C2831      C2832   1.394       .  A
C2831      C2835   1.509       .  S
C2832      H2836   1.085       .  S
C2833      H2843   1.111       .  S
C2833      H2844   1.110       .  S
C2833      H2845   1.110       .  S
C2835      H2846   1.109       .  S
C2835      H2847   1.110       .  S
C2835      H2848   1.111       .  S
C2849      C2850   1.403       .  A
C2849      C2854   1.408       .  A
C2849      H2859   1.084       .  S
C2850      C2855   1.486       .  S
C2850      C2851   1.412       .  A
C2851      C2852   1.404       .  A
C2851      C2856   1.507       .  S
C2852      C2853   1.403       .  A
C2852      H2857   1.084       .  S
C2853      C2854   1.415       .  A
C2854      C2858   1.506       .  S
C2855      C2860   1.411       .  A
C2855      C2864   1.403       .  A
C2856      H2872   1.110       .  S
C2856      H2873   1.109       .  S
C2856      H2874   1.111       .  S
C2858      H2869   1.111       .  S
C2858      H2870   1.111       .  S
C2858      H2871   1.110       .  S
C2860      C2861   1.400       .  A
C2860      C2865   1.509       .  S
C2861      C2862   1.405       .  A
C2861      H2866   1.084       .  S
C2862      C2863   1.419       .  A
C2863      C2864   1.412       .  A
C2863      C2867   1.506       .  S
C2864      H2868   1.084       .  S
C2865      H2875   1.111       .  S
C2865      H2876   1.110       .  S
C2865      H2877   1.109       .  S
C2867      H2878   1.111       .  S
C2867      H2879   1.110       .  S
C2867      H2880   1.110       .  S
C2881      C2882   1.401       .  A
C2881      C2886   1.400       .  A
C2881      H2891   1.085       .  S
C2882      C2887   1.476       .  S
C2882      C2883   1.410       .  A
C2883      C2884   1.402       .  A
C2883      C2888   1.506       .  S
C2884      C2885   1.400       .  A
C2884      H2889   1.081       .  S
C2885      C2886   1.410       .  A
C2886      C2890   1.504       .  S
C2887      C2892   1.410       .  A
C2887      C2896   1.401       .  A
C2888      H2904   1.110       .  S
C2888      H2905   1.110       .  S
C2888      H2906   1.111       .  S
C2890      H2901   1.110       .  S
C2890      H2902   1.110       .  S
C2890      H2903   1.109       .  S
C2892      C2893   1.396       .  A
C2892      C2897   1.510       .  S
C2893      C2894   1.403       .  A
C2893      H2898   1.085       .  S
C2894      C2895   1.418       .  A
C2895      C2896   1.407       .  A
C2895      C2899   1.506       .  S
C2896      H2900   1.084       .  S
C2897      H2907   1.111       .  S
C2897      H2908   1.110       .  S
C2897      H2909   1.110       .  S
C2899      H2910   1.111       .  S
C2899      H2911   1.105       .  S
C2899      H2912   1.110       .  S
C2913      C2914   1.402       .  A
C2913      C2918   1.403       .  A
C2913      H2923   1.084       .  S
C2914      C2919   1.489       .  S
C2914      C2915   1.414       .  A
C2915      C2916   1.410       .  A
C2915      C2920   1.505       .  S
C2916      C2917   1.404       .  A
C2916      H2921   1.084       .  S
C2917      C2918   1.415       .  A
C2918      C2922   1.509       .  S
C2919      C2924   1.414       .  A
C2919      C2928   1.401       .  A
C2920      H2936   1.109       .  S
C2920      H2937   1.110       .  S
C2920      H2938   1.111       .  S
C2922      H2933   1.111       .  S
C2922      H2934   1.108       .  S
C2922      H2935   1.111       .  S
C2924      C2925   1.410       .  A
C2924      C2929   1.505       .  S
C2925      C2926   1.403       .  A
C2925      H2930   1.084       .  S
C2926      C2927   1.416       .  A
C2927      C2928   1.403       .  A
C2927      C2931   1.509       .  S
C2928      H2932   1.084       .  S
C2929      H2939   1.111       .  S
C2929      H2940   1.110       .  S
C2929      H2941   1.110       .  S
C2931      H2942   1.108       .  S
C2931      H2943   1.110       .  S
C2931      H2944   1.111       .  S
C2945      C2946   1.404       .  A
C2945      C2950   1.405       .  A
C2945      H2955   1.084       .  S
C2946      C2951   1.482       .  S
C2946      C2947   1.412       .  A
C2947      C2948   1.401       .  A
C2947      C2952   1.507       .  S
C2948      C2949   1.401       .  A
C2948      H2953   1.085       .  S
C2949      C2950   1.412       .  A
C2950      C2954   1.506       .  S
C2951      C2956   1.410       .  A
C2951      C2960   1.403       .  A
C2952      H2968   1.110       .  S
C2952      H2969   1.111       .  S
C2952      H2970   1.111       .  S
C2954      H2965   1.110       .  S
C2954      H2966   1.111       .  S
C2954      H2967   1.109       .  S
C2956      C2957   1.400       .  A
C2956      C2961   1.508       .  S
C2957      C2958   1.405       .  A
C2957      H2962   1.084       .  S
C2958      C2959   1.417       .  A
C2959      C2960   1.406       .  A
C2959      C2963   1.507       .  S
C2960      H2964   1.085       .  S
C2961      H2971   1.111       .  S
C2961      H2972   1.110       .  S
C2961      H2973   1.111       .  S
C2963      H2974   1.111       .  S
C2963      H2975   1.106       .  S
C2963      H2976   1.110       .  S
C2977      C2978   1.402       .  A
C2977      C2982   1.412       .  A
C2977      H2987   1.084       .  S
C2978      C2983   1.488       .  S
C2978      C2979   1.410       .  A
C2979      C2980   1.403       .  A
C2979      C2984   1.509       .  S
C2980      C2981   1.411       .  A
C2980      H2985   1.083       .  S
C2981      C2982   1.423       .  A
C2982      C2986   1.507       .  S
C2983      C2988   1.414       .  A
C2983      C2992   1.399       .  A
C2984      H3000   1.110       .  S
C2984      H3001   1.108       .  S
C2984      H3002   1.111       .  S
C2986      H2997   1.110       .  S
C2986      H2998   1.111       .  S
C2986      H2999   1.110       .  S
C2988      C2989   1.411       .  A
C2988      C2993   1.505       .  S
C2989      C2990   1.405       .  A
C2989      H2994   1.084       .  S
C2990      C2991   1.417       .  A
C2991      C2992   1.400       .  A
C2991      C2995   1.509       .  S
C2992      H2996   1.085       .  S
C2993      H3003   1.111       .  S
C2993      H3004   1.110       .  S
C2993      H3005   1.109       .  S
C2995      H3006   1.111       .  S
C2995      H3007   1.107       .  S
C2995      H3008   1.110       .  S
C3009      C3010   1.402       .  A
C3009      C3014   1.407       .  A
C3009      H3019   1.084       .  S
C3010      C3015   1.487       .  S
C3010      C3011   1.412       .  A
C3011      C3012   1.405       .  A
C3011      C3016   1.507       .  S
C3012      C3013   1.404       .  A
C3012      H3017   1.084       .  S
C3013      C3014   1.418       .  A
C3014      C3018   1.508       .  S
C3015      C3020   1.409       .  A
C3015      C3024   1.400       .  A
C3016      H3032   1.110       .  S
C3016      H3033   1.111       .  S
C3016      H3034   1.111       .  S
C3018      H3029   1.110       .  S
C3018      H3030   1.110       .  S
C3018      H3031   1.108       .  S
C3020      C3021   1.404       .  A
C3020      C3025   1.507       .  S
C3021      C3022   1.410       .  A
C3021      H3026   1.085       .  S
C3022      C3023   1.424       .  A
C3023      C3024   1.409       .  A
C3023      C3027   1.508       .  S
C3024      H3028   1.084       .  S
C3025      H3035   1.111       .  S
C3025      H3036   1.110       .  S
C3025      H3037   1.110       .  S
C3027      H3038   1.111       .  S
C3027      H3039   1.110       .  S
C3027      H3040   1.111       .  S
C3041      C3042   1.402       .  A
C3041      C3046   1.406       .  A
C3041      H3051   1.084       .  S
C3042      C3047   1.486   1_554  S
C3042      C3043   1.413       .  A
C3043      C3044   1.404       .  A
C3043      C3048   1.507       .  S
C3044      C3045   1.404       .  A
C3044      H3049   1.084       .  S
C3045      C3046   1.416       .  A
C3046      C3050   1.508       .  S
C3047      C3052   1.411       .  A
C3047      C3056   1.399       .  A
C3048      H3064   1.110   1_554  S
C3048      H3065   1.110   1_554  S
C3048      H3066   1.111       .  S
C3050      H3061   1.109       .  S
C3050      H3062   1.111       .  S
C3050      H3063   1.111       .  S
C3052      C3053   1.406       .  A
C3052      C3057   1.506       .  S
C3053      C3054   1.406       .  A
C3053      H3058   1.084       .  S
C3054      C3055   1.422       .  A
C3055      C3056   1.405       .  A
C3055      C3059   1.509       .  S
C3056      H3060   1.085       .  S
C3057      H3067   1.111       .  S
C3057      H3068   1.110       .  S
C3057      H3069   1.110       .  S
C3059      H3070   1.110       .  S
C3059      H3071   1.109       .  S
C3059      H3072   1.111       .  S
C3073      C3074   1.398       .  A
C3073      C3078   1.396       .  A
C3073      H3083   1.085       .  S
C3074      C3079   1.477       .  S
C3074      C3075   1.410       .  A
C3075      C3076   1.408       .  A
C3075      C3080   1.504       .  S
C3076      C3077   1.405       .  A
C3076      H3081   1.084       .  S
C3077      C3078   1.416       .  A
C3078      C3082   1.509       .  S
C3079      C3084   1.410       .  A
C3079      C3088   1.402       .  A
C3080      H3096   1.110       .  S
C3080      H3097   1.110       .  S
C3080      H3098   1.111       .  S
C3082      H3093   1.111       .  S
C3082      H3094   1.110       .  S
C3082      H3095   1.105       .  S
C3084      C3085   1.402       .  A
C3084      C3089   1.507       .  S
C3085      C3086   1.404       .  A
C3085      H3090   1.085       .  S
C3086      C3087   1.415       .  A
C3087      C3088   1.404       .  A
C3087      C3091   1.508       .  S
C3088      H3092   1.084       .  S
C3089      H3099   1.111       .  S
C3089      H3100   1.110       .  S
C3089      H3101   1.110       .  S
C3091      H3102   1.111       .  S
C3091      H3103   1.111       .  S
C3091      H3104   1.110       .  S
C3105      C3106   1.400       .  A
C3105      C3110   1.400       .  A
C3105      H3115   1.084       .  S
C3106      C3111   1.481       .  S
C3106      C3107   1.412       .  A
C3107      C3108   1.407       .  A
C3107      C3112   1.505       .  S
C3108      C3109   1.404       .  A
C3108      H3113   1.084       .  S
C3109      C3110   1.416       .  A
C3110      C3114   1.507       .  S
C3111      C3116   1.412       .  A
C3111      C3120   1.399       .  A
C3112      H3128   1.110       .  S
C3112      H3129   1.110       .  S
C3112      H3130   1.111       .  S
C3114      H3125   1.111       .  S
C3114      H3126   1.108       .  S
C3114      H3127   1.110       .  S
C3116      C3117   1.408       .  A
C3116      C3121   1.505       .  S
C3117      C3118   1.404       .  A
C3117      H3122   1.084       .  S
C3118      C3119   1.415       .  A
C3119      C3120   1.399       .  A
C3119      C3123   1.508       .  S
C3120      H3124   1.084       .  S
C3121      H3131   1.111       .  S
C3121      H3132   1.110       .  S
C3121      H3133   1.110       .  S
C3123      H3134   1.108       .  S
C3123      H3135   1.110       .  S
C3123      H3136   1.111       .  S
C3137      C3138   1.404       .  A
C3137      C3142   1.414       .  A
C3137      H3147   1.084       .  S
C3138      C3143   1.488       .  S
C3138      C3139   1.408       .  A
C3139      C3140   1.401       .  A
C3139      C3144   1.509       .  S
C3140      C3141   1.412       .  A
C3140      H3145   1.083       .  S
C3141      C3142   1.421       .  A
C3142      C3146   1.506       .  S
C3143      C3148   1.413       .  A
C3143      C3152   1.400       .  A
C3144      H3160   1.110       .  S
C3144      H3161   1.109       .  S
C3144      H3162   1.111       .  S
C3146      H3157   1.110       .  S
C3146      H3158   1.111       .  S
C3146      H3159   1.111       .  S
C3148      C3149   1.409       .  A
C3148      C3153   1.506       .  S
C3149      C3150   1.405       .  A
C3149      H3154   1.083       .  S
C3150      C3151   1.418       .  A
C3151      C3152   1.405       .  A
C3151      C3155   1.507       .  S
C3152      H3156   1.084       .  S
C3153      H3163   1.111       .  S
C3153      H3164   1.110       .  S
C3153      H3165   1.109       .  S
C3155      H3166   1.111       .  S
C3155      H3167   1.109       .  S
C3155      H3168   1.109       .  S
C3169      C3170   1.400       .  A
C3169      C3174   1.395       .  A
C3169      H3179   1.085       .  S
C3170      C3175   1.471       .  S
C3170      C3171   1.409       .  A
C3171      C3172   1.403       .  A
C3171      C3176   1.506       .  S
C3172      C3173   1.404       .  A
C3172      H3177   1.085       .  S
C3173      C3174   1.413       .  A
C3174      C3178   1.509       .  S
C3175      C3180   1.414       .  A
C3175      C3184   1.401       .  A
C3176      H3192   1.110       .  S
C3176      H3193   1.108       .  S
C3176      H3194   1.111       .  S
C3178      H3189   1.110       .  S
C3178      H3190   1.111       .  S
C3178      H3191   1.107       .  S
C3180      C3181   1.399       .  A
C3180      C3185   1.509       .  S
C3181      C3182   1.398       .  A
C3181      H3186   1.085       .  S
C3182      C3183   1.412       .  A
C3183      C3184   1.399       .  A
C3183      C3187   1.509       .  S
C3184      H3188   1.085       .  S
C3185      H3195   1.111       .  S
C3185      H3196   1.110       .  S
C3185      H3197   1.107       .  S
C3187      H3198   1.111       .  S
C3187      H3199   1.110       .  S
C3187      H3200   1.110       .  S
C3201      C3202   1.401       .  A
C3201      C3206   1.410       .  A
C3201      H3211   1.084       .  S
C3202      C3207   1.481       .  S
C3202      C3203   1.409       .  A
C3203      C3204   1.400       .  A
C3203      C3208   1.510       .  S
C3204      C3205   1.409       .  A
C3204      H3209   1.084       .  S
C3205      C3206   1.422       .  A
C3206      C3210   1.507       .  S
C3207      C3212   1.408       .  A
C3207      C3216   1.398       .  A
C3208      H3224   1.110       .  S
C3208      H3225   1.109       .  S
C3208      H3226   1.111       .  S
C3210      H3221   1.111       .  S
C3210      H3222   1.110       .  S
C3210      H3223   1.110       .  S
C3212      C3213   1.406       .  A
C3212      C3217   1.505       .  S
C3213      C3214   1.409       .  A
C3213      H3218   1.083       .  S
C3214      C3215   1.424       .  A
C3215      C3216   1.403       .  A
C3215      C3219   1.507       .  S
C3216      H3220   1.084       .  S
C3217      H3227   1.111       .  S
C3217      H3228   1.110       .  S
C3217      H3229   1.109       .  S
C3219      H3230   1.111       .  S
C3219      H3231   1.107       .  S
C3219      H3232   1.109       .  S
C3233      C3234   1.401       .  A
C3233      C3238   1.406       .  A
C3233      H3243   1.084       .  S
C3234      C3239   1.490       .  S
C3234      C3235   1.414       .  A
C3235      C3236   1.408       .  A
C3235      C3240   1.506       .  S
C3236      C3237   1.404       .  A
C3236      H3241   1.084       .  S
C3237      C3238   1.419       .  A
C3238      C3242   1.509       .  S
C3239      C3244   1.413       .  A
C3239      C3248   1.401       .  A
C3240      H3256   1.109       .  S
C3240      H3257   1.110       .  S
C3240      H3258   1.111       .  S
C3242      H3253   1.111       .  S
C3242      H3254   1.108       .  S
C3242      H3255   1.111       .  S
C3244      C3245   1.410       .  A
C3244      C3249   1.505       .  S
C3245      C3246   1.405       .  A
C3245      H3250   1.084       .  S
C3246      C3247   1.419       .  A
C3247      C3248   1.402       .  A
C3247      C3251   1.508       .  S
C3248      H3252   1.085       .  S
C3249      H3259   1.111       .  S
C3249      H3260   1.110       .  S
C3249      H3261   1.110       .  S
C3251      H3262   1.110       .  S
C3251      H3263   1.103       .  S
C3251      H3264   1.111       .  S
C3265      C3266   1.402       .  A
C3265      C3270   1.406       .  A
C3265      H3275   1.084       .  S
C3266      C3271   1.488       .  S
C3266      C3267   1.412       .  A
C3267      C3268   1.407       .  A
C3267      C3272   1.506       .  S
C3268      C3269   1.405       .  A
C3268      H3273   1.084       .  S
C3269      C3270   1.418       .  A
C3270      C3274   1.508       .  S
C3271      C3276   1.411       .  A
C3271      C3280   1.395       .  A
C3272      H3288   1.110       .  S
C3272      H3289   1.110       .  S
C3272      H3290   1.111       .  S
C3274      H3285   1.110       .  S
C3274      H3286   1.111       .  S
C3274      H3287   1.105       .  S
C3276      C3277   1.413       .  A
C3276      C3281   1.504       .  S
C3277      C3278   1.410       .  A
C3277      H3282   1.084       .  S
C3278      C3279   1.428       .  A
C3279      C3280   1.402       .  A
C3279      C3283   1.511       .  S
C3280      H3284   1.085       .  S
C3281      H3291   1.111       .  S
C3281      H3292   1.110       .  S
C3281      H3293   1.110       .  S
C3283      H3294   1.111       .  S
C3283      H3295   1.111       .  S
C3283      H3296   1.110       .  S
C3297      C3298   1.402       .  A
C3297      C3302   1.402       .  A
C3297      H3307   1.085       .  S
C3298      C3303   1.488       .  S
C3298      C3299   1.412       .  A
C3299      C3300   1.406       .  A
C3299      C3304   1.506       .  S
C3300      C3301   1.406       .  A
C3300      H3305   1.084       .  S
C3301      C3302   1.420       .  A
C3302      C3306   1.509       .  S
C3303      C3308   1.412       .  A
C3303      C3312   1.401       .  A
C3304      H3320   1.108       .  S
C3304      H3321   1.110       .  S
C3304      H3322   1.111       .  S
C3306      H3317   1.110       .  S
C3306      H3318   1.111       .  S
C3306      H3319   1.102       .  S
C3308      C3309   1.406       .  A
C3308      C3313   1.507       .  S
C3309      C3310   1.408       .  A
C3309      H3314   1.084       .  S
C3310      C3311   1.421       .  A
C3311      C3312   1.403       .  A
C3311      C3315   1.509       .  S
C3312      H3316   1.084       .  S
C3313      H3323   1.111       .  S
C3313      H3324   1.108       .  S
C3313      H3325   1.110       .  S
C3315      H3326   1.109       .  S
C3315      H3327   1.110       .  S
C3315      H3328   1.111       .  S
C3329      C3330   1.400       .  A
C3329      C3334   1.397       .  A
C3329      H3339   1.085       .  S
C3330      C3335   1.473   1_554  S
C3330      C3331   1.411       .  A
C3331      C3332   1.401       .  A
C3331      C3336   1.507       .  S
C3332      C3333   1.401       .  A
C3332      H3337   1.083       .  S
C3333      C3334   1.415       .  A
C3334      C3338   1.510       .  S
C3335      C3340   1.409       .  A
C3335      C3344   1.399       .  A
C3336      H3352   1.109   1_554  S
C3336      H3353   1.110   1_554  S
C3336      H3354   1.111       .  S
C3338      H3349   1.110       .  S
C3338      H3350   1.110       .  S
C3338      H3351   1.107       .  S
C3340      C3341   1.400       .  A
C3340      C3345   1.507       .  S
C3341      C3342   1.405       .  A
C3341      H3346   1.084       .  S
C3342      C3343   1.419       .  A
C3343      C3344   1.400       .  A
C3343      C3347   1.509       .  S
C3344      H3348   1.085       .  S
C3345      H3355   1.111       .  S
C3345      H3356   1.109       .  S
C3345      H3357   1.110       .  S
C3347      H3358   1.108       .  S
C3347      H3359   1.111       .  S
C3347      H3360   1.111       .  S
C3361      C3362   1.399       .  A
C3361      C3366   1.396       .  A
C3361      H3371   1.085       .  S
C3362      C3367   1.473       .  S
C3362      C3363   1.408       .  A
C3363      C3364   1.405       .  A
C3363      C3368   1.504       .  S
C3364      C3365   1.405       .  A
C3364      H3369   1.084       .  S
C3365      C3366   1.414       .  A
C3366      C3370   1.509       .  S
C3367      C3372   1.406       .  A
C3367      C3376   1.400       .  A
C3368      H3384   1.110       .  S
C3368      H3385   1.110       .  S
C3368      H3386   1.111       .  S
C3370      H3381   1.111       .  S
C3370      H3382   1.109       .  S
C3370      H3383   1.111       .  S
C3372      C3373   1.397       .  A
C3372      C3377   1.507       .  S
C3373      C3374   1.407       .  A
C3373      H3378   1.084       .  S
C3374      C3375   1.421       .  A
C3375      C3376   1.403       .  A
C3375      C3379   1.509       .  S
C3376      H3380   1.085       .  S
C3377      H3387   1.111       .  S
C3377      H3388   1.110       .  S
C3377      H3389   1.110       .  S
C3379      H3390   1.110       .  S
C3379      H3391   1.101       .  S
C3379      H3392   1.111       .  S
C3393      C3394   1.398       .  A
C3393      C3398   1.398       .  A
C3393      H3403   1.085       .  S
C3394      C3399   1.478       .  S
C3394      C3395   1.411       .  A
C3395      C3396   1.408       .  A
C3395      C3400   1.505       .  S
C3396      C3397   1.405       .  A
C3396      H3401   1.084       .  S
C3397      C3398   1.418       .  A
C3398      C3402   1.511       .  S
C3399      C3404   1.409       .  A
C3399      C3408   1.403       .  A
C3400      H3416   1.110       .  S
C3400      H3417   1.109       .  S
C3400      H3418   1.111       .  S
C3402      H3413   1.111       .  S
C3402      H3414   1.109       .  S
C3402      H3415   1.109       .  S
C3404      C3405   1.397       .  A
C3404      C3409   1.510       .  S
C3405      C3406   1.405       .  A
C3405      H3410   1.082       .  S
C3406      C3407   1.418       .  A
C3407      C3408   1.408       .  A
C3407      C3411   1.508       .  S
C3408      H3412   1.084       .  S
C3409      H3419   1.111       .  S
C3409      H3420   1.110       .  S
C3409      H3421   1.109       .  S
C3411      H3422   1.111       .  S
C3411      H3423   1.105       .  S
C3411      H3424   1.110       .  S
C3425      C3426   1.400       .  A
C3425      C3430   1.401       .  A
C3425      H3435   1.084       .  S
C3426      C3431   1.484       .  S
C3426      C3427   1.412       .  A
C3427      C3428   1.409       .  A
C3427      C3432   1.505       .  S
C3428      C3429   1.403       .  A
C3428      H3433   1.084       .  S
C3429      C3430   1.416       .  A
C3430      C3434   1.509       .  S
C3431      C3436   1.409       .  A
C3431      C3440   1.401       .  A
C3432      H3448   1.110       .  S
C3432      H3449   1.110       .  S
C3432      H3450   1.111       .  S
C3434      H3445   1.109       .  S
C3434      H3446   1.111       .  S
C3434      H3447   1.110       .  S
C3436      C3437   1.400       .  A
C3436      C3441   1.509       .  S
C3437      C3438   1.410       .  A
C3437      H3442   1.083       .  S
C3438      C3439   1.424       .  A
C3439      C3440   1.411       .  A
C3439      C3443   1.507       .  S
C3440      H3444   1.084       .  S
C3441      H3451   1.111       .  S
C3441      H3452   1.110       .  S
C3441      H3453   1.110       .  S
C3443      H3454   1.110       .  S
C3443      H3455   1.111       .  S
C3443      H3456   1.111       .  S
C3457      C3458   1.403       .  A
C3457      C3462   1.403       .  A
C3457      H3467   1.085       .  S
C3458      C3463   1.488       .  S
C3458      C3459   1.413       .  A
C3459      C3460   1.406       .  A
C3459      C3464   1.507       .  S
C3460      C3461   1.404       .  A
C3460      H3465   1.084       .  S
C3461      C3462   1.414       .  A
C3462      C3466   1.506       .  S
C3463      C3468   1.411       .  A
C3463      C3472   1.405       .  A
C3464      H3480   1.110       .  S
C3464      H3481   1.110       .  S
C3464      H3482   1.111       .  S
C3466      H3477   1.110       .  S
C3466      H3478   1.110       .  S
C3466      H3479   1.109       .  S
C3468      C3469   1.398       .  A
C3468      C3473   1.510       .  S
C3469      C3470   1.407       .  A
C3469      H3474   1.085       .  S
C3470      C3471   1.420       .  A
C3471      C3472   1.411       .  A
C3471      C3475   1.508       .  S
C3472      H3476   1.084       .  S
C3473      H3483   1.111       .  S
C3473      H3484   1.109       .  S
C3473      H3485   1.111       .  S
C3475      H3486   1.110       .  S
C3475      H3487   1.104       .  S
C3475      H3488   1.111       .  S
C3489      C3490   1.403       .  A
C3489      C3494   1.406       .  A
C3489      H3499   1.085       .  S
C3490      C3495   1.481       .  S
C3490      C3491   1.412       .  A
C3491      C3492   1.396       .  A
C3491      C3496   1.510       .  S
C3492      C3493   1.402       .  A
C3492      H3497   1.084       .  S
C3493      C3494   1.417       .  A
C3494      C3498   1.508       .  S
C3495      C3500   1.412       .  A
C3495      C3504   1.403       .  A
C3496      H3512   1.109       .  S
C3496      H3513   1.111       .  S
C3496      H3514   1.111       .  S
C3498      H3509   1.111       .  S
C3498      H3510   1.110       .  S
C3498      H3511   1.104       .  S
C3500      C3501   1.397       .  A
C3500      C3505   1.509       .  S
C3501      C3502   1.403       .  A
C3501      H3506   1.085       .  S
C3502      C3503   1.419       .  A
C3503      C3504   1.405       .  A
C3503      C3507   1.508       .  S
C3504      H3508   1.084       .  S
C3505      H3515   1.111       .  S
C3505      H3516   1.109       .  S
C3505      H3517   1.110       .  S
C3507      H3518   1.110       .  S
C3507      H3519   1.103       .  S
C3507      H3520   1.111       .  S
C3521      C3522   1.401       .  A
C3521      C3526   1.403       .  A
C3521      H3531   1.085       .  S
C3522      C3527   1.477       .  S
C3522      C3523   1.412       .  A
C3523      C3524   1.400       .  A
C3523      C3528   1.509       .  S
C3524      C3525   1.402       .  A
C3524      H3529   1.085       .  S
C3525      C3526   1.415       .  A
C3526      C3530   1.506       .  S
C3527      C3532   1.409       .  A
C3527      C3536   1.402       .  A
C3528      H3544   1.110       .  S
C3528      H3545   1.108       .  S
C3528      H3546   1.111       .  S
C3530      H3541   1.110       .  S
C3530      H3542   1.110       .  S
C3530      H3543   1.108       .  S
C3532      C3533   1.402       .  A
C3532      C3537   1.507       .  S
C3533      C3534   1.403       .  A
C3533      H3538   1.082       .  S
C3534      C3535   1.414       .  A
C3535      C3536   1.401       .  A
C3535      C3539   1.508       .  S
C3536      H3540   1.084       .  S
C3537      H3547   1.111       .  S
C3537      H3548   1.110       .  S
C3537      H3549   1.108       .  S
C3539      H3550   1.110       .  S
C3539      H3551   1.106       .  S
C3539      H3552   1.110       .  S
C3553      C3554   1.404       .  A
C3553      C3558   1.407       .  A
C3553      H3563   1.084       .  S
C3554      C3559   1.486       .  S
C3554      C3555   1.410       .  A
C3555      C3556   1.403       .  A
C3555      C3560   1.507       .  S
C3556      C3557   1.405       .  A
C3556      H3561   1.085       .  S
C3557      C3558   1.417       .  A
C3558      C3562   1.507       .  S
C3559      C3564   1.408       .  A
C3559      C3568   1.405       .  A
C3560      H3576   1.110       .  S
C3560      H3577   1.111       .  S
C3560      H3578   1.111       .  S
C3562      H3573   1.110       .  S
C3562      H3574   1.110       .  S
C3562      H3575   1.106       .  S
C3564      C3565   1.399       .  A
C3564      C3569   1.508       .  S
C3565      C3566   1.409       .  A
C3565      H3570   1.084       .  S
C3566      C3567   1.418       .  A
C3567      C3568   1.410       .  A
C3567      C3571   1.507       .  S
C3568      H3572   1.084       .  S
C3569      H3579   1.111       .  S
C3569      H3580   1.109       .  S
C3569      H3581   1.110       .  S
C3571      H3582   1.111       .  S
C3571      H3583   1.106       .  S
C3571      H3584   1.110       .  S
C3585      C3586   1.398       .  A
C3585      C3590   1.402       .  A
C3585      H3595   1.084       .  S
C3586      C3591   1.487       .  S
C3586      C3587   1.411       .  A
C3587      C3588   1.411       .  A
C3587      C3592   1.504       .  S
C3588      C3589   1.408       .  A
C3588      H3593   1.084       .  S
C3589      C3590   1.422       .  A
C3590      C3594   1.510       .  S
C3591      C3596   1.411       .  A
C3591      C3600   1.402       .  A
C3592      H3608   1.110       .  S
C3592      H3609   1.110       .  S
C3592      H3610   1.111       .  S
C3594      H3605   1.109       .  S
C3594      H3606   1.111       .  S
C3594      H3607   1.109       .  S
C3596      C3597   1.405       .  A
C3596      C3601   1.506       .  S
C3597      C3598   1.406       .  A
C3597      H3602   1.085       .  S
C3598      C3599   1.419       .  A
C3599      C3600   1.407       .  A
C3599      C3603   1.509       .  S
C3600      H3604   1.085       .  S
C3601      H3611   1.111       .  S
C3601      H3612   1.110       .  S
C3601      H3613   1.110       .  S
C3603      H3614   1.111       .  S
C3603      H3615   1.105       .  S
C3603      H3616   1.110       .  S
C3617      C3618   1.401       .  A
C3617      C3622   1.404       .  A
C3617      H3627   1.085       .  S
C3618      C3623   1.490       .  S
C3618      C3619   1.413       .  A
C3619      C3620   1.408       .  A
C3619      C3624   1.506       .  S
C3620      C3621   1.405       .  A
C3620      H3625   1.084       .  S
C3621      C3622   1.420       .  A
C3622      C3626   1.508       .  S
C3623      C3628   1.411       .  A
C3623      C3632   1.400       .  A
C3624      H3640   1.109       .  S
C3624      H3641   1.110       .  S
C3624      H3642   1.111       .  S
C3626      H3637   1.110       .  S
C3626      H3638   1.111       .  S
C3626      H3639   1.102       .  S
C3628      C3629   1.408       .  A
C3628      C3633   1.506       .  S
C3629      C3630   1.410       .  A
C3629      H3634   1.084       .  S
C3630      C3631   1.423       .  A
C3631      C3632   1.404       .  A
C3631      C3635   1.509       .  S
C3632      H3636   1.084       .  S
C3633      H3643   1.111       .  S
C3633      H3644   1.109       .  S
C3633      H3645   1.110       .  S
C3635      H3646   1.109       .  S
C3635      H3647   1.110       .  S
C3635      H3648   1.111       .  S
C3649      C3650   1.400       .  A
C3649      C3654   1.403       .  A
C3649      H3659   1.084       .  S
C3650      C3655   1.480       .  S
C3650      C3651   1.410       .  A
C3651      C3652   1.401       .  A
C3651      C3656   1.506       .  S
C3652      C3653   1.405       .  A
C3652      H3657   1.083       .  S
C3653      C3654   1.419       .  A
C3654      C3658   1.509       .  S
C3655      C3660   1.408       .  A
C3655      C3664   1.400       .  A
C3656      H3672   1.110       .  S
C3656      H3673   1.110       .  S
C3656      H3674   1.111       .  S
C3658      H3669   1.110       .  S
C3658      H3670   1.111       .  S
C3658      H3671   1.107       .  S
C3660      C3661   1.401       .  A
C3660      C3665   1.508       .  S
C3661      C3662   1.408       .  A
C3661      H3666   1.084       .  S
C3662      C3663   1.422       .  A
C3663      C3664   1.407       .  A
C3663      C3667   1.508       .  S
C3664      H3668   1.084       .  S
C3665      H3675   1.111       .  S
C3665      H3676   1.110       .  S
C3665      H3677   1.111       .  S
C3667      H3678   1.110       .  S
C3667      H3679   1.109       .  S
C3667      H3680   1.111       .  S
C3681      C3682   1.400       .  A
C3681      C3686   1.405       .  A
C3681      H3691   1.085       .  S
C3682      C3687   1.481   1_556  S
C3682      C3683   1.409       .  A
C3683      C3684   1.403       .  A
C3683      C3688   1.507       .  S
C3684      C3685   1.406       .  A
C3684      H3689   1.083       .  S
C3685      C3686   1.420       .  A
C3686      C3690   1.510       .  S
C3687      C3692   1.409       .  A
C3687      C3696   1.400       .  A
C3688      H3704   1.110       .  S
C3688      H3705   1.110       .  S
C3688      H3706   1.111       .  S
C3690      H3701   1.110       .  S
C3690      H3702   1.111       .  S
C3690      H3703   1.105       .  S
C3692      C3693   1.404       .  A
C3692      C3697   1.507       .  S
C3693      C3694   1.408       .  A
C3693      H3698   1.084       .  S
C3694      C3695   1.421       .  A
C3695      C3696   1.405       .  A
C3695      C3699   1.509       .  S
C3696      H3700   1.085       .  S
C3697      H3707   1.111       .  S
C3697      H3708   1.110   1_554  S
C3697      H3709   1.110   1_554  S
C3699      H3710   1.111       .  S
C3699      H3711   1.111       .  S
C3699      H3712   1.109       .  S
C3713      C3714   1.404       .  A
C3713      C3718   1.408       .  A
C3713      H3723   1.084       .  S
C3714      C3719   1.487       .  S
C3714      C3715   1.411       .  A
C3715      C3716   1.402       .  A
C3715      C3720   1.508       .  S
C3716      C3717   1.405       .  A
C3716      H3721   1.084       .  S
C3717      C3718   1.418       .  A
C3718      C3722   1.507       .  S
C3719      C3724   1.411       .  A
C3719      C3728   1.405       .  A
C3720      H3736   1.110       .  S
C3720      H3737   1.110       .  S
C3720      H3738   1.111       .  S
C3722      H3733   1.110       .  S
C3722      H3734   1.110       .  S
C3722      H3735   1.105       .  S
C3724      C3725   1.400       .  A
C3724      C3729   1.509       .  S
C3725      C3726   1.404       .  A
C3725      H3730   1.086       .  S
C3726      C3727   1.418       .  A
C3727      C3728   1.410       .  A
C3727      C3731   1.506       .  S
C3728      H3732   1.085       .  S
C3729      H3739   1.111       .  S
C3729      H3740   1.109       .  S
C3729      H3741   1.110       .  S
C3731      H3742   1.110       .  S
C3731      H3743   1.105       .  S
C3731      H3744   1.110       .  S
C3745      C3746   1.401       .  A
C3745      C3750   1.409       .  A
C3745      H3755   1.084       .  S
C3746      C3751   1.480       .  S
C3746      C3747   1.409       .  A
C3747      C3748   1.398       .  A
C3747      C3752   1.510       .  S
C3748      C3749   1.409       .  A
C3748      H3753   1.083       .  S
C3749      C3750   1.423       .  A
C3750      C3754   1.507       .  S
C3751      C3756   1.411       .  A
C3751      C3760   1.398       .  A
C3752      H3768   1.110       .  S
C3752      H3769   1.108       .  S
C3752      H3770   1.111       .  S
C3754      H3765   1.111       .  S
C3754      H3766   1.110       .  S
C3754      H3767   1.111       .  S
C3756      C3757   1.407       .  A
C3756      C3761   1.506       .  S
C3757      C3758   1.406       .  A
C3757      H3762   1.084       .  S
C3758      C3759   1.417       .  A
C3759      C3760   1.400       .  A
C3759      C3763   1.509       .  S
C3760      H3764   1.084       .  S
C3761      H3771   1.111       .  S
C3761      H3772   1.110       .  S
C3761      H3773   1.109       .  S
C3763      H3774   1.111       .  S
C3763      H3775   1.111       .  S
C3763      H3776   1.108       .  S
